[TITLE]
Scenario: Historical SCADA Simulation 
Date: 2025/12/16 11:40:57 

[JUNCTIONS]
;ID              	Elev        	Demand      	Pattern         
 J-1             	145         	0           	                	;
 J-2             	148         	0           	                	;
 J-3             	150         	0.144       	ResidentialC    	;
 J-4             	147         	0.936       	ResidentialC    	;
 J-5             	138         	0.792       	ResidentialC    	;
 J-6             	136         	0.468       	ResidentialC    	;
 J-7             	135         	0.468       	ResidentialC    	;
 J-8             	134         	0.072       	ResidentialB    	;
 J-9             	131         	0.216       	ResidentialB    	;
 J-10            	134         	1.44        	School          	;
 J-11            	135         	0.54        	Industrial-General	;
 J-12            	135         	0.36        	Industrial-General	;
 J-13            	136         	1.44        	Industrial-General	;
 J-14            	144         	1.08        	Industrial-General	;
 J-15            	127         	0.36        	ResidentialA    	;
 J-16            	124         	0.648       	ResidentialA    	;
 J-17            	122         	0.648       	ResidentialA    	;
 J-18            	120         	0.648       	ResidentialA    	;
 J-19            	118         	0.432       	ResidentialA    	;
 J-20            	117         	0.432       	ResidentialA    	;
 J-21            	115         	0.432       	ResidentialA    	;
 J-22            	113         	0.432       	ResidentialA    	;
 J-23            	111         	0.432       	ResidentialA    	;
 J-24            	110         	0.432       	ResidentialA    	;
 J-25            	108         	0.144       	Retail          	;
 J-26            	106         	0.144       	Retail          	;
 J-27            	130         	0.576       	ResidentialB    	;
 J-28            	120         	0.792       	ResidentialB    	;
 J-29            	118         	0.468       	ResidentialB    	;
 J-30            	111         	0.468       	ResidentialB    	;
 J-31            	107         	0.72        	Industry-Arsenal	;
 J-32            	105         	0.288       	Industry-Arsenal	;
 J-33            	105         	0.36        	Industrial-General	;
 J-34            	105         	0.216       	Industrial-General	;
 J-35            	105         	0.54        	Industrial-General	;
 J-36            	105         	0.144       	Retail          	;
 J-37            	105         	0.144       	Retail          	;
 J-38            	106         	0.144       	Retail          	;
 J-39            	127         	0.36        	ResidentialB    	;
 J-40            	124         	0.288       	ResidentialA    	;
 J-41            	121         	0.648       	ResidentialA    	;
 J-42            	120         	0.648       	ResidentialA    	;
 J-43            	118         	0.648       	ResidentialA    	;
 J-44            	116         	0.648       	ResidentialA    	;
 J-45            	114         	0.432       	ResidentialA    	;
 J-46            	112         	0.432       	ResidentialA    	;
 J-47            	111         	0.432       	ResidentialA    	;
 J-48            	110         	0.432       	ResidentialA    	;
 J-49            	108         	0.432       	ResidentialA    	;
 J-50            	107         	0.144       	Retail          	;
 J-51            	122         	0.36        	ResidentialB    	;
 J-52            	120         	0.288       	ResidentialA    	;
 J-53            	118         	0.648       	ResidentialA    	;
 J-54            	116         	0.648       	ResidentialA    	;
 J-55            	114         	0.648       	ResidentialA    	;
 J-56            	113         	0.648       	ResidentialA    	;
 J-57            	112         	0.432       	ResidentialA    	;
 J-58            	110         	0.432       	ResidentialA    	;
 J-59            	109         	0.432       	ResidentialA    	;
 J-60            	108         	0.432       	ResidentialA    	;
 J-61            	107         	0.432       	ResidentialA    	;
 J-62            	106         	0.144       	Retail          	;
 J-63            	116         	0.324       	ResidentialB    	;
 J-64            	115         	0.36        	ResidentialA    	;
 J-65            	115         	0.468       	ResidentialA    	;
 J-66            	114         	0.54        	ResidentialA    	;
 J-68            	112         	0.432       	ResidentialA    	;
 J-69            	110         	0.468       	ResidentialA    	;
 J-70            	109         	0.324       	ResidentialA    	;
 J-71            	108         	0.288       	ResidentialA    	;
 J-72            	108         	0.288       	ResidentialA    	;
 J-73            	107         	0.504       	ResidentialA    	;
 J-74            	106         	0.144       	Retail          	;
 J-75            	110         	1.512       	Retail          	;
 J-76            	109         	0.216       	ResidentialA    	;
 J-77            	109         	0.144       	ResidentialA    	;
 J-78            	108         	0.144       	Industry-Arsenal	;
 J-80            	106         	0.144       	Retail          	;
 J-82            	108         	0.54        	Industrial-General	;
 J-83            	106         	0.576       	Industry-Arsenal	;
 J-84            	106         	0.288       	Industrial-General	;
 J-85            	105         	0.252       	Industrial-General	;
 J-86            	129         	0.576       	ResidentialA    	;
 J-87            	126         	0.648       	ResidentialA    	;
 J-88            	124         	0.54        	ResidentialA    	;
 J-89            	122         	0.612       	ResidentialA    	;
 J-90            	120         	0.396       	ResidentialA    	;
 J-91            	119         	0.36        	ResidentialA    	;
 J-92            	117         	0.288       	ResidentialA    	;
 J-93            	115         	0.216       	ResidentialA    	;
 J-94            	114         	0.324       	ResidentialA    	;
 J-95            	110         	0.288       	ResidentialA    	;
 J-96            	109         	0.144       	Retail          	;
 J-97            	108         	0.144       	Retail          	;
 J-98            	106         	0.144       	Retail          	;
 J-99            	126         	0.432       	ResidentialA    	;
 J-100           	123         	0.504       	ResidentialA    	;
 J-101           	121         	0.36        	Municipal       	;
 J-102           	113         	0.18        	ResidentialA    	;
 J-103           	111         	0.396       	ResidentialA    	;
 J-104           	108         	0.144       	Retail          	;
 J-105           	106         	0.144       	Retail          	;
 J-106           	126         	0.54        	ResidentialA    	;
 J-107           	123         	0.468       	ResidentialA    	;
 J-108           	128         	11.52       	Industrial-General	;
 J-109           	126         	0.288       	ResidentialA    	;
 J-110           	124         	0.324       	ResidentialA    	;
 J-111           	122         	0.288       	ResidentialA    	;
 J-112           	118         	0.54        	ResidentialA    	;
 J-114           	112         	0.432       	ResidentialA    	;
 J-115           	108         	0.144       	Retail          	;
 J-116           	106         	0.144       	Retail          	;
 J-117           	127         	0.252       	ResidentialA    	;
 J-118           	124         	0.216       	ResidentialA    	;
 J-119           	124         	0.216       	ResidentialA    	;
 J-120           	122         	0.288       	ResidentialA    	;
 J-121           	109         	0.216       	Retail          	;
 J-122           	107         	0.144       	Retail          	;
 J-123           	127         	0.468       	ResidentialA    	;
 J-124           	125         	0.288       	ResidentialA    	;
 J-125           	123         	0.432       	ResidentialA    	;
 J-126           	121         	0.432       	ResidentialA    	;
 J-127           	120         	0.396       	ResidentialA    	;
 J-128           	118         	0.36        	ResidentialA    	;
 J-129           	116         	0.468       	ResidentialA    	;
 J-130           	118         	0.324       	ResidentialA    	;
 J-131           	115         	0.72        	Industrial-General	;
 J-132           	116         	0.396       	ResidentialA    	;
 J-133           	114         	0.396       	ResidentialA    	;
 J-134           	112         	0.288       	ResidentialA    	;
 J-135           	123         	0.288       	ResidentialA    	;
 J-136           	132         	8.64        	Industrial-PlastiCorp	;
 J-137           	105         	0.144       	Retail          	;
 J-138           	108         	0.144       	Retail          	;
 J-139           	118         	1.36274825440466	Orchard         	;
 J-140           	140         	1.8         	Industrial-General	;
 J-141           	142         	0.72        	Industrial-General	;
 J-142           	141         	2.52        	School          	;
 J-143           	146         	0.756       	ResidentialC    	;
 J-144           	113         	0.504       	ResidentialB    	;
 J-145           	107         	0.828       	ResidentialB    	;
 J-146           	106         	0.432       	ResidentialB    	;
 J-147           	108         	0.54        	ResidentialB    	;
 J-148           	105         	0.468       	ResidentialB    	;
 J-149           	105         	0.396       	ResidentialB    	;
 J-150           	106         	1.08        	ResidentialB    	;
 J-151           	107         	0.468       	ResidentialB    	;
 J-152           	108         	0.468       	ResidentialB    	;
 J-153           	116         	0.324       	ResidentialB    	;
 J-154           	115         	0.612       	ResidentialB    	;
 J-155           	111         	0.432       	ResidentialB    	;
 J-158           	121         	0.288       	ResidentialB    	;
 J-159           	129         	0.36        	ResidentialB    	;
 J-160           	126         	0.252       	ResidentialB    	;
 J-161           	134         	0.972       	ResidentialC    	;
 J-162           	130         	0.54        	ResidentialC    	;
 J-163           	136         	0.576       	ResidentialC    	;
 J-164           	138         	0.684       	ResidentialC    	;
 J-165           	142         	0.504       	ResidentialC    	;
 J-166           	144         	0.576       	ResidentialC    	;
 J-167           	142         	0.684       	ResidentialC    	;
 J-168           	145         	0.648       	ResidentialC    	;
 J-169           	147         	0.54        	ResidentialC    	;
 J-170           	150         	0.396       	ResidentialC    	;
 J-171           	145         	0.72        	ResidentialC    	;
 J-172           	146         	0.504       	ResidentialC    	;
 J-202           	141         	0.576       	ResidentialC    	;
 J-192           	148         	0.576       	ResidentialC    	;
 J-194           	151         	0.504       	ResidentialC    	;
 J-197           	149         	0.576       	ResidentialC    	;
 J-212           	148         	0.648       	ResidentialC    	;
 J-186           	150         	0.504       	ResidentialC    	;
 J-199           	152         	0.792       	ResidentialC    	;
 J-183           	145         	0.504       	ResidentialC    	;
 J-204           	138         	0.432       	ResidentialC    	;
 J-173           	152         	0.576       	ResidentialC    	;
 J-209           	149         	0.36        	ResidentialC    	;
 J-200           	151         	0.576       	ResidentialC    	;
 J-220           	160         	0.432       	ResidentialC    	;
 J-216           	122         	0.504       	ResidentialC    	;
 J-174           	156         	0.504       	ResidentialC    	;
 308-A           	131         	0           	                	;
 308-B           	131         	0           	                	;
 309-A           	129         	0           	                	;
 309-B           	129         	0           	                	;
 310-A           	129         	0           	                	;
 310-B           	129         	0           	                	;
 306-A           	145         	0           	                	;
 306-B           	145         	0           	                	;
 307-A           	145         	0           	                	;
 307-B           	145         	0           	                	;

[RESERVOIRS]
;ID              	Head        	Pattern         
 Reservoir       	147         	                	;

[TANKS]
;ID              	Elevation   	InitLevel   	MinLevel    	MaxLevel    	Diameter    	MinVol      	VolCurve        	Overflow
 T-1             	147         	30          	26.7360000006949	31.6128000007144	18.2880000000732	1130        	                	;

[PIPES]
;ID              	Node1           	Node2           	Length      	Diameter    	Roughness   	MinorLoss   	Status
 P-1             	Reservoir       	J-1             	241.601488650428	600         	90.0000035762787	0           	Open  	;
 P-2             	J-1             	306-A           	143.942385160349	600         	90.0000035762787	0           	Open  	;
 P-3             	306-B           	J-2             	149.572744391398	600         	90.0000035762787	0           	Open  	;
 P-4             	J-1             	307-A           	140.85303693103	600         	90.0000035762787	0           	Open  	;
 P-5             	307-B           	J-2             	161.391263168142	600         	90.0000035762787	0           	Open  	;
 P-6             	J-2             	J-3             	504.858701484319	600         	90.0000035762787	0           	Open  	;
 P-7             	J-3             	J-4             	146.188743645884	600         	90.0000035762787	0           	Open  	;
 P-8             	J-4             	J-5             	573.783805248151	600         	90.0000035762787	0           	Open  	;
 P-9             	J-5             	J-6             	111.064209811392	600         	90.0000035762787	0           	Open  	;
 P-10            	J-6             	J-7             	435.920353262688	600         	90.0000035762787	0           	Open  	;
 P-11            	J-7             	J-8             	231.128585322815	600         	90.0000035762787	0           	Open  	;
 P-12            	J-8             	J-9             	582.445939291359	600         	90.0000035762787	0           	Open  	;
 P-13            	J-9             	J-10            	125.937307638692	600         	90.0000035762787	0           	Open  	;
 P-14            	J-10            	J-11            	195.061759308951	600         	90.0000035762787	0           	Open  	;
 P-15            	J-11            	J-12            	227.605612939665	600         	90.0000035762787	0           	Open  	;
 P-16            	J-12            	J-13            	298.528449503192	600         	90.0000035762787	0           	Open  	;
 P-17            	J-13            	J-14            	259.932914583703	600         	90.0000035762787	0           	Open  	;
 P-18            	J-14            	T-1             	158.688055122134	600         	90.0000035762787	0           	Open  	;
 P-20            	J-15            	J-16            	183.063817585559	200         	90.0000035762787	0           	Open  	;
 P-21            	J-16            	J-17            	179.734051480917	200         	90.0000035762787	0           	Open  	;
 P-22            	J-17            	J-18            	191.456876880754	200         	90.0000035762787	0           	Open  	;
 P-23            	J-18            	J-19            	178.311976675561	200         	90.0000035762787	0           	Open  	;
 P-24            	J-19            	J-20            	126.122561157489	200         	90.0000035762787	0           	Open  	;
 P-25            	J-20            	J-21            	136.457391452402	200         	90.0000035762787	0           	Open  	;
 P-26            	J-21            	J-22            	127.857803773443	200         	90.0000035762787	0           	Open  	;
 P-27            	J-22            	J-23            	136.824408693927	200         	90.0000035762787	0           	Open  	;
 P-28            	J-23            	J-24            	125.141935737793	200         	90.0000035762787	0           	Open  	;
 P-29            	J-24            	J-25            	140.675700382877	200         	90.0000035762787	0           	Open  	;
 P-30            	J-25            	J-26            	126.127543836069	200         	90.0000035762787	0           	Open  	;
 P-31            	J-8             	308-A           	79.3147037547379	200         	110.000002384186	0           	Open  	;
 P-32            	308-B           	J-27            	68.9762335852166	200         	110.000002384186	0           	Closed	;
 P-33            	J-27            	J-28            	416.537125311789	200         	110.000002384186	0           	Open  	;
 P-34            	J-28            	J-29            	138.639633361996	200         	110.000002384186	0           	Open  	;
 P-35            	J-29            	J-30            	384.973305581418	200         	110.000002384186	0           	Open  	;
 P-36            	J-30            	J-31            	367.184484514113	200         	110.000002384186	0           	Open  	;
 P-37            	J-31            	J-32            	375.040288151459	200         	110.000002384186	0           	Open  	;
 P-38            	J-32            	J-33            	265.380923565208	200         	110.000002384186	0           	Open  	;
 P-39            	J-33            	J-34            	271.918349565435	200         	110.000002384186	0           	Open  	;
 P-40            	J-34            	J-35            	195.749990165787	200         	110.000002384186	0           	Open  	;
 P-41            	J-35            	J-36            	252.453208647207	200         	110.000002384186	0           	Open  	;
 P-42            	J-36            	J-37            	108.828120762434	203.200000000813	90.0000035762787	0           	Open  	;
 P-43            	J-37            	J-38            	267.073006287421	50          	90.0000035762787	0           	Open  	;
 P-44            	J-38            	J-26            	103.23762897356	150         	90.0000035762787	0           	Open  	;
 P-45            	J-9             	310-A           	96.5597020035959	200         	90.0000035762787	0           	Open  	;
 P-46            	310-B           	J-15            	105.096859768445	200         	90.0000035762787	0           	Open  	;
 P-48            	J-40            	J-41            	183.524553518779	50          	90.0000035762787	0           	Open  	;
 P-49            	J-41            	J-42            	179.62523657673	50          	90.0000035762787	0           	Open  	;
 P-50            	J-42            	J-43            	190.710450585209	50          	90.0000035762787	0           	Open  	;
 P-51            	J-43            	J-44            	179.058409866238	50          	90.0000035762787	0           	Open  	;
 P-52            	J-44            	J-45            	126.028974833224	50          	90.0000035762787	0           	Open  	;
 P-53            	J-45            	J-46            	135.886780997534	50          	90.0000035762787	0           	Open  	;
 P-54            	J-46            	J-47            	128.523206004288	50          	90.0000035762787	0           	Open  	;
 P-55            	J-47            	J-48            	136.281473881821	50          	90.0000035762787	0           	Open  	;
 P-56            	J-48            	J-49            	125.609192893442	50          	90.0000035762787	0           	Open  	;
 P-57            	J-49            	J-50            	140.338358770815	50          	90.0000035762787	0           	Open  	;
 P-59            	J-52            	J-53            	183.140029465292	100         	90.0000035762787	0           	Open  	;
 P-60            	J-53            	J-54            	179.8575567841	100         	90.0000035762787	0           	Open  	;
 P-61            	J-54            	J-55            	190.997054843655	50          	90.0000035762787	0           	Open  	;
 P-62            	J-55            	J-56            	178.611758955008	50          	90.0000035762787	0           	Open  	;
 P-63            	J-56            	J-57            	126.607800655554	50          	90.0000035762787	0           	Open  	;
 P-64            	J-57            	J-58            	137.150711936861	50          	90.0000035762787	0           	Open  	;
 P-65            	J-58            	J-59            	127.114306962026	50          	90.0000035762787	0           	Open  	;
 P-66            	J-59            	J-60            	136.202152994786	50          	90.0000035762787	0           	Open  	;
 P-67            	J-60            	J-61            	125.201856983736	50          	90.0000035762787	0           	Open  	;
 P-68            	J-61            	J-62            	141.127356217626	50          	90.0000035762787	0           	Open  	;
 P-69            	J-64            	J-65            	197.215089797714	100         	90.0000035762787	0           	Open  	;
 P-70            	J-65            	J-66            	179.912964885517	100         	90.0000035762787	0           	Open  	;
 P-73            	J-68            	J-69            	178.877317195006	100         	90.0000035762787	0           	Open  	;
 P-74            	J-69            	J-70            	125.993255970551	100         	90.0000035762787	0           	Open  	;
 P-75            	J-70            	J-71            	136.036397658716	100         	90.0000035762787	0           	Open  	;
 P-76            	J-71            	J-72            	128.044175583749	100         	90.0000035762787	0           	Open  	;
 P-77            	J-72            	J-73            	136.543561781816	100         	90.0000035762787	0           	Open  	;
 P-78            	J-73            	J-74            	189.88150046146	100         	90.0000035762787	0           	Open  	;
 P-79            	J-74            	J-36            	103.119867736007	100         	90.0000035762787	0           	Open  	;
 P-80            	J-75            	J-76            	134.959551746746	100         	90.0000035762787	0           	Open  	;
 P-81            	J-76            	J-77            	58.376366724774	100         	90.0000035762787	0           	Open  	;
 P-82            	J-77            	J-78            	181.169020206534	100         	90.0000035762787	0           	Open  	;
 P-84            	J-82            	J-83            	370.070210072579	100         	90.0000035762787	0           	Open  	;
 P-85            	J-83            	J-84            	262.204374223226	100         	90.0000035762787	0           	Open  	;
 P-86            	J-84            	J-85            	264.570119765285	100         	90.0000035762787	0           	Open  	;
 P-87            	J-85            	J-35            	117.398948864743	50          	90.0000035762787	0           	Open  	;
 P-89            	J-86            	J-87            	183.387266220814	100         	90.0000035762787	0           	Open  	;
 P-90            	J-87            	J-88            	179.653696747465	100         	90.0000035762787	0           	Open  	;
 P-91            	J-88            	J-89            	190.780855613693	50          	90.0000035762787	0           	Open  	;
 P-92            	J-89            	J-90            	178.848670295862	100         	90.0000035762787	0           	Open  	;
 P-93            	J-90            	J-91            	126.423998952458	100         	90.0000035762787	0           	Open  	;
 P-94            	J-91            	J-92            	135.554200549724	100         	90.0000035762787	0           	Open  	;
 P-95            	J-92            	J-93            	90.152863492225	100         	90.0000035762787	0           	Open  	;
 P-96            	J-93            	J-94            	87.43088584541	100         	90.0000035762787	0           	Open  	;
 P-97            	J-94            	J-95            	212.507039713294	100         	90.0000035762787	0           	Open  	;
 P-98            	J-95            	J-96            	64.607851346508	100         	90.0000035762787	0           	Open  	;
 P-99            	J-96            	J-97            	73.5223586227876	100         	90.0000035762787	0           	Open  	;
 P-100           	J-97            	J-98            	134.039618203026	100         	90.0000035762787	0           	Open  	;
 P-101           	J-99            	J-100           	324.828018837532	50          	90.0000035762787	0           	Open  	;
 P-102           	J-100           	J-101           	182.562462797123	50          	90.0000035762787	0           	Open  	;
 P-103           	J-102           	J-103           	124.00187647376	50          	90.0000035762787	0           	Open  	;
 P-104           	J-103           	J-104           	145.504713873059	100         	90.0000035762787	0           	Open  	;
 P-105           	J-104           	J-105           	135.387673005899	100         	90.0000035762787	0           	Open  	;
 P-106           	J-106           	J-107           	224.582954198709	100         	90.0000035762787	0           	Open  	;
 P-107           	J-108           	J-109           	154.592666257086	101.600000000406	90.0000035762787	0           	Open  	;
 P-108           	J-109           	J-110           	203.957749093532	100         	90.0000035762787	0           	Open  	;
 P-109           	J-110           	J-111           	127.910978467436	100         	90.0000035762787	0           	Open  	;
 P-112           	J-114           	J-115           	145.133864393762	100         	90.0000035762787	0           	Open  	;
 P-113           	J-115           	J-116           	135.599522504087	100         	90.0000035762787	0           	Open  	;
 P-114           	J-117           	J-118           	209.961656039099	100         	90.0000035762787	0           	Open  	;
 P-115           	J-119           	J-120           	126.569535230564	150         	90.0000035762787	0           	Open  	;
 P-116           	J-121           	J-122           	135.224187877003	50          	90.0000035762787	0           	Open  	;
 P-117           	J-123           	J-124           	115.621772229555	100         	90.0000035762787	0           	Open  	;
 P-118           	J-124           	J-125           	120.921430658158	100         	90.0000035762787	0           	Open  	;
 P-119           	J-125           	J-126           	126.115679916603	100         	90.0000035762787	0           	Open  	;
 P-120           	J-127           	J-128           	120.202727476068	50          	90.0000035762787	0           	Open  	;
 P-121           	J-128           	J-129           	126.416328841789	50          	90.0000035762787	0           	Open  	;
 P-122           	J-63            	J-51            	172.113083061117	150         	90.0000035762787	0           	Open  	;
 P-123           	J-51            	J-39            	114.102650007517	150         	90.0000035762787	0           	Open  	;
 P-125           	J-30            	J-64            	135.996786757583	150         	90.0000035762787	0           	Open  	;
 P-126           	J-64            	J-52            	166.336723656064	150         	90.0000035762787	0           	Open  	;
 P-127           	J-52            	J-40            	113.863922143637	150         	90.0000035762787	0           	Open  	;
 P-128           	J-40            	J-15            	132.226985466034	150         	90.0000035762787	0           	Open  	;
 P-129           	J-15            	J-86            	124.299834251444	150         	90.0000035762787	0           	Open  	;
 P-130           	J-65            	J-53            	102.347937450238	50          	90.0000035762787	0           	Open  	;
 P-131           	J-53            	J-41            	114.200841689516	50          	90.0000035762787	0           	Open  	;
 P-132           	J-41            	J-16            	131.636381288412	50          	90.0000035762787	0           	Open  	;
 P-133           	J-16            	J-87            	124.681456213989	150         	90.0000035762787	0           	Open  	;
 P-134           	J-87            	J-99            	132.107128716628	150         	90.0000035762787	0           	Open  	;
 P-135           	J-99            	J-106           	235.485572819376	150         	90.0000035762787	0           	Open  	;
 P-136           	J-106           	J-109           	112.76495174655	150         	90.0000035762787	0           	Open  	;
 P-137           	J-109           	J-117           	122.323778880662	150         	90.0000035762787	0           	Open  	;
 P-138           	J-117           	J-123           	273.350621079355	150         	90.0000035762787	0           	Open  	;
 P-139           	J-123           	J-130           	405.62890196527	150         	90.0000035762787	0           	Open  	;
 P-140           	J-130           	J-131           	170.930269969364	100         	90.0000035762787	0           	Open  	;
 P-141           	J-31            	J-82            	60.2274060481971	150         	90.0000035762787	0           	Open  	;
 P-142           	J-82            	J-75            	98.2724180978988	150         	90.0000035762787	0           	Open  	;
 P-143           	J-75            	J-66            	99.6838279522239	150         	90.0000035762787	0           	Open  	;
 P-144           	J-66            	J-54            	102.807249470383	150         	90.0000035762787	0           	Open  	;
 P-145           	J-54            	J-42            	114.003265831545	150         	90.0000035762787	0           	Open  	;
 P-146           	J-42            	J-17            	132.129355850557	150         	90.0000035762787	0           	Open  	;
 P-147           	J-17            	J-88            	124.388281373092	150         	90.0000035762787	0           	Open  	;
 P-148           	J-124           	J-127           	266.364617652071	50          	90.0000035762787	0           	Open  	;
 P-151           	J-77            	J-68            	118.713146592072	100         	90.0000035762787	0           	Open  	;
 P-152           	J-68            	J-55            	102.743481505128	100         	90.0000035762787	0           	Open  	;
 P-153           	J-55            	J-43            	113.951159103606	100         	90.0000035762787	0           	Open  	;
 P-154           	J-43            	J-18            	132.365207421878	100         	90.0000035762787	0           	Open  	;