[TITLE]
Scenario: Base 
Date: 2025/12/16 11:40:42 

[JUNCTIONS]
;ID              	Elev        	Demand      	Pattern         
 229             	284         	0           	                	;
 223             	240         	0           	                	;
 222             	358         	0           	                	;
 221             	295         	0           	                	;
 219             	284         	0.1681      	Pattern-1       	;
 218             	280         	0.0448      	Pattern-1       	;
 217             	279         	0.1233      	Pattern-1       	;
 216             	280         	0.0448      	Pattern-1       	;
 215             	286         	0.0594      	Pattern-1       	;
 214             	272         	0.1344      	Pattern-1       	;
 213             	274         	0.1681      	Pattern-1       	;
 212             	238         	0.0885      	Pattern-1       	;
 2111            	243         	0           	                	;
 211             	230         	0.3698      	Pattern-1       	;
 209             	217         	0.1792      	Pattern-1       	;
 208             	247         	0.3138      	Pattern-1       	;
 2071            	233         	0           	                	;
 207             	215         	0.1681      	Pattern-1       	;
 203             	227         	0.1681      	Pattern-1       	;
 202             	264         	0.1457      	Pattern-1       	;
 184             	200         	0.2353      	Pattern-1       	;
 183             	245         	0.1233      	Pattern-1       	;
 1821            	250         	0           	                	;
 182             	260         	0.1681      	Pattern-1       	;
 181             	235         	0.2353      	Pattern-1       	;
 1801            	200         	0           	                	;
 180             	190         	0           	                	;
 1794            	385         	0           	                	;
 1793            	351         	0           	                	;
 1792            	289         	0           	                	;
 1791            	252         	0           	                	;
 179             	236         	0.8741      	Pattern-1       	;
 1781            	209         	0           	                	;
 178             	227         	0           	                	;
 177             	213         	0           	                	;
 176             	258         	0           	                	;
 175             	263         	0           	                	;
 174             	268         	0.1031      	Pattern-1       	;
 173             	228         	0.1457      	Pattern-1       	;
 1724            	216         	0           	                	;
 1723            	230         	0           	                	;
 1722            	260         	0           	                	;
 1721            	275         	0           	                	;
 172             	290         	0.1905      	Pattern-1       	;
 171             	260         	0.1344      	Pattern-1       	;
 169             	260         	0.2353      	Pattern-1       	;
 168             	253         	0.1457      	Pattern-1       	;
 167             	311         	0.074       	Pattern-1       	;
 1651            	296         	0           	                	;
 165             	285         	0.2017      	Pattern-1       	;
 164             	235         	0.1792      	Pattern-1       	;
 1631            	275         	0           	                	;
 163             	270         	0.1457      	Pattern-1       	;
 162             	212         	0.2353      	Pattern-1       	;
 1611            	262         	0           	                	;
 161             	250         	0.1681      	Pattern-1       	;
 160             	187         	0.4034      	Pattern-1       	;
 159             	226         	0.1344      	Pattern-1       	;
 158             	217         	0.1031      	Pattern-1       	;
 157             	208         	0.269       	Pattern-1       	;
 156             	198         	0.2353      	Pattern-1       	;
 155             	218         	0.1233      	Pattern-1       	;
 1541            	198         	0           	                	;
 154             	205         	0.2801      	Pattern-1       	;
 153             	191         	0.2465      	Pattern-1       	;
 1521            	245         	0           	                	;
 152             	246         	0.1457      	Pattern-1       	;
 151             	243         	0           	                	;
 149             	245         	0.1681      	Pattern-1       	;
 148             	268         	0.074       	Pattern-1       	;
 147             	264         	0.1681      	Pattern-1       	;
 146             	311         	0.1457      	Pattern-1       	;
 145             	300         	0.1681      	Pattern-1       	;
 1443            	288         	0           	                	;
 1442            	306         	0           	                	;
 1441            	292         	0           	                	;
 144             	284         	0.0885      	Pattern-1       	;
 143             	289         	0.1681      	Pattern-1       	;
 142             	235         	0.3586      	Pattern-1       	;
 1413            	289         	0           	                	;
 1412            	268         	0           	                	;
 1411            	268         	0           	                	;
 141             	240         	0           	                	;
 1352            	230         	0           	                	;
 1351            	213         	0           	                	;
 135             	199         	0           	                	;
 134             	199         	0.0594      	Pattern-1       	;
 133             	210         	0.0292      	Pattern-1       	;
 132             	202         	0.0594      	Pattern-1       	;
 131             	201         	0.074       	Pattern-1       	;
 130             	225         	0.0292      	Pattern-1       	;
 129             	203         	0.0448      	Pattern-1       	;
 128             	204         	0.0448      	Pattern-1       	;
 127             	209         	0           	                	;
 126             	191         	0.1233      	Pattern-1       	;
 125             	207         	0.1233      	Pattern-1       	;
 124             	205         	0.0448      	Pattern-1       	;
 123             	194         	0.1233      	Pattern-1       	;
 115             	126         	0           	                	;
 1131            	191         	0           	                	;
 113             	126         	0           	                	;
 112             	200         	0           	                	;
 111             	207         	0.0594      	Pattern-1       	;
 109             	206         	0.0448      	Pattern-1       	;
 108             	195         	0.0448      	Pattern-1       	;
 107             	193         	0.0448      	Pattern-1       	;
 106             	168         	0           	                	;
 150-A           	126         	0           	                	;
 150-B           	126         	0           	                	;

[RESERVOIRS]
;ID              	Head        	Pattern         
 R-1             	138         	                	;

[TANKS]
;ID              	Elevation   	InitLevel   	MinLevel    	MaxLevel    	Diameter    	MinVol      	VolCurve        	Overflow
 185             	402         	8           	1           	26          	135         	14313.8815279185	                	;

[PIPES]
;ID              	Node1           	Node2           	Length      	Diameter    	Roughness   	MinorLoss   	Status
 257             	219             	229             	45          	16          	140         	0           	Open  	;
 247             	203             	177             	740         	12          	140         	0           	Open  	;
 245             	202             	203             	860         	12          	140         	0           	Open  	;
 2264            	185             	1794            	125         	16          	140         	0           	Open  	;
 2263            	1794            	1793            	285         	16          	140         	0           	Open  	;
 2262            	1792            	1791            	305         	16          	140         	0           	Open  	;
 2261            	1791            	179             	135         	16          	140         	0           	Open  	;
 226             	1793            	1792            	515         	16          	140         	0           	Open  	;
 225             	181             	183             	315         	8           	140         	0           	Open  	;
 2241            	1821            	182             	295         	8           	140         	0           	Open  	;
 224             	181             	1821            	465         	8           	140         	0           	Open  	;
 2231            	180             	1801            	180         	8           	140         	0           	Open  	;
 223             	1801            	181             	470         	8           	140         	0           	Open  	;
 222             	180             	106             	420         	12          	140         	0           	Open  	;
 2211            	1781            	180             	1095        	12          	140         	0           	Open  	;
 221             	178             	1781            	1095        	12          	140         	0           	Open  	;
 2201            	173             	1723            	430         	8           	140         	0           	Open  	;
 220             	1723            	164             	1070        	8           	140         	0           	Open  	;
 219             	178             	179             	420         	16          	140         	0           	Open  	;
 218             	177             	178             	1260        	12          	140         	0           	Open  	;
 217             	176             	177             	1150        	12          	140         	0           	Open  	;
 216             	160             	142             	910         	12          	140         	0           	Open  	;
 215             	160             	184             	830         	12          	140         	0           	Open  	;
 214             	162             	184             	1070        	8           	140         	0           	Open  	;
 2131            	1724            	173             	455         	8           	140         	0           	Open  	;
 213             	184             	1724            	455         	8           	140         	0           	Open  	;
 212             	171             	173             	270         	8           	140         	0           	Open  	;
 2111            	171             	1721            	325         	8           	140         	0           	Open  	;
 211             	1721            	172             	305         	8           	140         	0           	Open  	;
 2101            	171             	1722            	505         	8           	140         	0           	Open  	;
 210             	1722            	169             	770         	8           	140         	0           	Open  	;
 209             	169             	172             	680         	8           	140         	0           	Open  	;
 2081            	165             	1651            	190         	8           	140         	0           	Open  	;
 208             	1651            	167             	310         	8           	140         	0           	Open  	;
 2071            	161             	1611            	275         	8           	140         	0           	Open  	;
 207             	1611            	165             	555         	8           	140         	0           	Open  	;
 206             	164             	169             	210         	8           	140         	0           	Open  	;
 2051            	163             	1631            	230         	8           	140         	0           	Open  	;
 205             	1631            	165             	705         	8           	140         	0           	Open  	;
 204             	168             	163             	230         	8           	140         	0           	Open  	;
 203             	161             	159             	270         	8           	140         	0           	Open  	;
 202             	162             	164             	200         	8           	140         	0           	Open  	;
 201             	159             	158             	270         	12          	140         	0           	Open  	;
 200             	163             	161             	1200        	8           	140         	0           	Open  	;
 199             	153             	162             	680         	12          	140         	0           	Open  	;
 198             	168             	159             	1010        	12          	140         	0           	Open  	;
 197             	174             	168             	470         	12          	140         	0           	Open  	;
 196             	175             	174             	550         	12          	140         	0           	Open  	;
 195             	175             	176             	580         	12          	140         	0           	Open  	;
 194             	221             	175             	1890        	12          	140         	0           	Open  	;
 193             	219             	221             	790         	12          	140         	1000        	Open  	;
 192             	218             	219             	790         	12          	140         	0           	Open  	;
 191             	217             	218             	200         	12          	140         	0           	Open  	;
 189             	214             	217             	560         	12          	140         	0           	Open  	;
 188             	216             	222             	840         	8           	140         	0           	Open  	;
 187             	216             	215             	470         	8           	140         	0           	Open  	;
 186             	214             	216             	190         	8           	140         	0           	Open  	;
 185             	211             	214             	1050        	12          	140         	0           	Open  	;
 184             	211             	212             	420         	8           	140         	0           	Open  	;
 1831            	211             	2111            	260         	8           	140         	0           	Open  	;
 183             	2111            	213             	630         	8           	140         	0           	Open  	;
 182             	223             	211             	590         	12          	140         	0           	Open  	;
 181             	209             	223             	630         	12          	140         	0           	Open  	;
 180             	207             	209             	350         	12          	140         	0           	Open  	;
 179             	208             	209             	770         	8           	140         	0           	Open  	;
 1781            	2071            	208             	340         	8           	140         	0           	Open  	;
 178             	207             	2071            	490         	8           	140         	0           	Open  	;
 177             	158             	207             	560         	12          	140         	0           	Open  	;
 176             	157             	158             	470         	8           	140         	0           	Open  	;
 175             	157             	154             	490         	8           	140         	0           	Open  	;
 174             	156             	157             	880         	8           	140         	0           	Open  	;
 173             	153             	156             	560         	8           	140         	0           	Open  	;
 1721            	1541            	153             	470         	8           	140         	0           	Open  	;
 172             	154             	1541            	420         	8           	140         	0           	Open  	;
 171             	154             	155             	420         	8           	140         	0           	Open  	;
 169             	151             	158             	560         	12          	140         	0           	Open  	;
 168             	151             	152             	180         	8           	140         	0           	Open  	;
 167             	148             	151             	270         	12          	140         	0           	Open  	;
 166             	144             	148             	210         	12          	140         	0           	Open  	;
 1651            	1521            	152             	350         	8           	140         	0           	Open  	;
 165             	149             	1521            	460         	8           	140         	0           	Open  	;
 164             	149             	153             	790         	8           	140         	0           	Open  	;
 163             	148             	147             	920         	8           	140         	0           	Open  	;
 162             	147             	149             	210         	8           	140         	0           	Open  	;
 1611            	145             	1443            	230         	8           	140         	0           	Open  	;
 161             	147             	1443            	350         	8           	140         	0           	Open  	;
 1591            	145             	1442            	220         	8           	140         	0           	Open  	;
 159             	1442            	146             	150         	8           	140         	0           	Open  	;
 1581            	1441            	145             	325         	8           	140         	0           	Open  	;
 158             	144             	1441            	405         	8           	140         	0           	Open  	;
 1571            	143             	1413            	150         	12          	140         	0           	Open  	;
 157             	1413            	144             	545         	12          	140         	0           	Open  	;
 1562            	1412            	143             	365         	12          	140         	0           	Open  	;
 1561            	1411            	1412            	120         	12          	140         	0           	Open  	;
 156             	141             	1411            	515         	12          	140         	0           	Open  	;
 155             	141             	142             	260         	12          	140         	0           	Open  	;
 1542            	1352            	141             	280         	12          	140         	0           	Open  	;
 1541            	1351            	1352            	490         	12          	140         	0           	Open  	;
 154             	135             	1351            	385         	12          	140         	0           	Open  	;
 153             	150-B           	113             	111         	6           	140         	0           	Open  	;
 1511            	1131            	135             	190         	12          	140         	0           	Open  	;
 151             	113             	1131            	1600        	12          	140         	0           	Open  	;
 150             	R-1             	115             	570         	12          	140         	0           	Open  	;
 149             	134             	135             	140         	12          	140         	0           	Open  	;
 148             	133             	134             	250         	12          	140         	0           	Open  	;
 147             	131             	133             	150         	12          	140         	0           	Open  	;
 146             	131             	132             	290         	8           	140         	0           	Open  	;
 145             	128             	131             	320         	12          	140         	0           	Open  	;
 144             	128             	129             	230         	6           	140         	0           	Open  	;
 143             	127             	128             	260         	12          	140         	0           	Open  	;
 142             	112             	127             	390         	12          	140         	0           	Open  	;
 141             	125             	127             	190         	12          	140         	0           	Open  	;
 139             	125             	126             	450         	8           	140         	0           	Open  	;
 138             	123             	125             	570         	12          	140         	0           	Open  	;
 137             	123             	124             	310         	6           	140         	0           	Open  	;
 130             	133             	130             	190         	6           	140         	0           	Open  	;
 126             	115             	150-A           	25          	6           	140         	0           	Open  	;
 124             	109             	112             	300         	12          	140         	0           	Open  	;
 123             	109             	111             	220         	6           	140         	0           	Open  	;
 122             	107             	109             	440         	12          	140         	0           	Open  	;
 121             	107             	108             	240         	6           	140         	0           	Open  	;
 119             	106             	107             	570         	12          	140         	0           	Open  	;

[PUMPS]
;ID              	Node1           	Node2           	Parameters
 VSPB-2          	150-A           	150-B           	HEAD VSPB-2	SPEED 1	;

[VALVES]
;ID              	Node1           	Node2           	Diameter    	Type	Setting     	MinorLoss   

[TAGS]

[DEMANDS]
;Junction        	Demand      	Pattern         	Category

[STATUS]
;ID              	Status/Setting

[PATTERNS]
;ID              	Multipliers
;
 Pattern-1       	99          	99          	285         	470         	403         	403         
 Pattern-1       	205         	205         	106         	106         	651         	651         
 Pattern-1       	652         	652         	403         	403         	205         	205         
 Pattern-1       	298         	298         	298         	298         	99          	99          
;
 Pattern-2       	0           	0           	450         	900         	900         	900         
 Pattern-2       	900         	900         	900         	900         	900         	900         
 Pattern-2       	900         	900         	900         	900         	900         	900         
 Pattern-2       	0           	0           	0           	0           	0           	0           

[CURVES]
;ID              	X-Value     	Y-Value
;PUMP: PUMP:
 VSPB-2          	0           	950         
 VSPB-2          	2500        	600         
 VSPB-2          	3500        	0           
;PUMP: EFFICIENCY:
 VSPB-2E         	0           	100         

[CONTROLS]

[RULES]

[ENERGY]
 Global Efficiency  	75
 Global Price       	0
 Demand Charge      	0
 Pump 	VSPB-2          	Efficiency	VSPB-2E

[EMITTERS]
;Junction        	Coefficient

[QUALITY]
;Node            	InitQual
 229             	0.1
 223             	0.1
 222             	0.1
 221             	0.1
 219             	0.1
 218             	0.1
 217             	0.1
 216             	0.1
 215             	0.1
 214             	0.1
 213             	0.1
 212             	0.1
 2111            	0.1
 211             	0.1
 209             	0.1
 208             	0.1
 2071            	0.1
 207             	0.1
 203             	0.1
 202             	0.1
 184             	0.1
 183             	0.1
 1821            	0.1
 182             	0.1
 181             	0.1
 1801            	0.1
 180             	0.1
 1794            	0.1
 1793            	0.1
 1792            	0.1
 1791            	0.1
 179             	0.1
 1781            	0.1
 178             	0.1
 177             	0.1
 176             	0.1
 175             	0.1
 174             	0.1
 173             	0.1
 1724            	0.1
 1723            	0.1
 1722            	0.1
 1721            	0.1
 172             	0.1
 171             	0.1
 169             	0.1
 168             	0.1
 167             	0.1
 1651            	0.1
 165             	0.1
 164             	0.1
 1631            	0.1
 163             	0.1
 162             	0.1
 1611            	0.1
 161             	0.1
 160             	0.1
 159             	0.1
 158             	0.1
 157             	0.1
 156             	0.1
 155             	0.1
 1541            	0.1
 154             	0.1
 153             	0.1
 1521            	0.1
 152             	0.1
 151             	0.1
 149             	0.1
 148             	0.1
 147             	0.1
 146             	0.1
 145             	0.1
 1443            	0.1
 1442            	0.1
 1441            	0.1
 144             	0.1
 143             	0.1
 142             	0.1
 1413            	0.1
 1412            	0.1
 1411            	0.1
 141             	0.1
 1352            	0.1
 1351            	0.1
 135             	0.1
 134             	0.1
 133             	0.1
 132             	0.1
 131             	0.1
 130             	0.1
 129             	0.1
 128             	0.1
 127             	0.1
 126             	0.1
 125             	0.1
 124             	0.1
 123             	0.1
 115             	0.1
 1131            	0.1
 113             	0.1
 112             	0.1
 111             	0.1
 109             	0.1
 108             	0.1
 107             	0.1
 106             	0.1
 R-1             	1.7
 185             	0.01

[SOURCES]
;Node            	Type        	Quality     	Pattern

[REACTIONS]
;Type     	Pipe/Tank       	Coefficient


[REACTIONS]
 Order Bulk            	1
 Order Tank            	1
 Order Wall            	1
 Global Bulk           	0
 Global Wall           	0
 Limiting Potential    	0
 Roughness Correlation 	0

[MIXING]
;Tank            	Model

[TIMES]
 Duration           	24:00 
 Hydraulic Timestep 	1:00 
 Quality Timestep   	0:05 
 Pattern Timestep   	1:00 
 Pattern Start      	0:00
 Report Timestep    	1:00
 Report Start       	0:00 
 Start ClockTime    	12 am
 Statistic          	None

[REPORT]
 Status             	No
 Summary            	No
 Page               	0

[OPTIONS]
 Units              	GPM
 Headloss           	H-W
 Specific Gravity   	1
 Viscosity          	90909.0909090909
 Trials             	40
 Accuracy           	0.001
 CHECKFREQ          	2
 MAXCHECK           	10
 DAMPLIMIT          	0
 Unbalanced         	Continue 10
 Pattern            	1
 Demand Multiplier  	1.0
 Emitter Exponent   	0.5
 Quality            	CHEMICAL mg/L
 Diffusivity        	76923076.9230769
 Tolerance          	0.01

[COORDINATES]
;Node            	X-Coord           	Y-Coord
229             	6210.000          	10470.000         
223             	6077.460          	8995.590          
222             	8132.580          	10049.300         
221             	5270.290          	9929.100          
219             	6260.190          	10351.860         
218             	6808.870          	10576.590         
217             	6966.870          	10490.540         
216             	7361.636          	10069.857         
215             	7349.040          	9608.930          
214             	7132.670          	10086.700         
213             	6831.110          	9995.430          
212             	6905.750          	9095.260          
2111            	6549.270          	9522.560          
211             	6603.040          	9291.050          
209             	5667.340          	8622.060          
208             	5044.540          	8950.990          
2071            	4965.594          	8753.946          
207             	5445.330          	8379.270          
203             	2025.440          	9352.330          
202             	2034.350          	10066.400         
184             	7646.570          	6537.680          
183             	3301.490          	6880.300          
1821            	3805.000          	6460.000          
182             	3836.210          	6234.140          
181             	3400.210          	6643.250          
1801            	3266.380          	6106.790          
180             	3090.850          	6044.700          
1794            	1988.920          	6684.330          
1793            	2131.320          	6853.940          
1792            	1864.210          	7202.300          
1791            	1941.570          	7352.401          
179             	1865.670          	7567.160          
1781            	3027.730          	7105.840          
178             	2286.870          	7858.030          
177             	2460.830          	8830.040          
176             	3406.690          	9347.330          
175             	3808.490          	9340.350          
174             	4187.520          	8948.010          
173             	8239.190          	6614.490          
1724            	7995.600          	6428.260          
1723            	7865.200          	6681.720          
1722            	7919.010          	6919.020          
1721            	8280.620          	7105.040          
172             	8048.230          	7124.330          
171             	8303.900          	6880.710          
169             	7618.140          	7467.620          
168             	4421.690          	8585.140          
167             	4391.540          	7443.170          
1651            	4259.120          	7694.620          
165             	4379.820          	7847.740          
164             	7427.000          	7434.000          
1631            	4057.320          	8421.190          
163             	4252.550          	8504.990          
162             	7237.140          	7438.110          
1611            	4741.730          	7535.250          
161             	4884.980          	7726.130          
160             	7006.950          	6224.780          
159             	4968.070          	7946.220          
158             	5252.570          	7889.280          
157             	5692.200          	7933.740          
156             	6471.300          	8135.280          
155             	6289.730          	7394.040          
1541            	6245.530          	7813.410          