[TITLE]
Scenario: Base 
Date: 2015/7/21 8:54:47 

[JUNCTIONS]
;ID              	Elev        	Demand      	Pattern         
 806             	3.916       	0.0197718503472222	236             	;
 3798            	3.086       	2.10721875125	243             	;
 7322            	4.07        	0           	                	;
 9646            	3.89        	0.63051839984375	244             	;
 10769           	2.91        	0           	                	;
 11328           	3.95        	0           	                	;
 11656           	3.9         	1.10458275919271	235             	;
 12248           	0           	0           	                	;
 12250           	0           	0.0057520725	243             	;
 14333           	3.97        	0.694861657044271	235             	;
 14825           	4.747952027 	3.33014425728733	239             	;
 14834           	0           	2.18401557054905	243             	;
 14838           	0           	2.00351884418403	241             	;
 14839           	0           	0.0879783760047743	236             	;
 14848           	0           	2.06530335230903	243             	;
 14851           	0           	7.76474393482205	235             	;
 14852           	0           	2.05379556969835	235             	;
 14858           	0           	4.78796347419271	243             	;
 14868           	0           	2.47783372769097	240             	;
 15674           	0           	1.68301399978082	240             	;
 16034           	0           	0.750189173819444	240             	;
 18322           	3.667       	2.03569103006076	243             	;
 18332           	3.653       	0.358299562222222	243             	;
 18363           	3.467       	0.589192934930555	243             	;
 18373           	3.337       	0.862982326805556	243             	;
 18374           	3.337       	2.35174788861111	243             	;
 18429           	3.448       	1.90304450520833	243             	;
 18443           	3.395       	1.62840445258681	243             	;
 18474           	3.467       	1.32292661932292	243             	;
 18478           	3.456       	2.22582263565972	243             	;
 18912           	3.537       	2.04835081222222	243             	;
 21082           	4.155       	2.51035708748264	243             	;
 21531           	3.302       	2.20497854838542	243             	;
 21576           	4.243       	2.87863119828993	243             	;
 21677           	3.839       	4.47222104569444	243             	;
 21688           	3.65        	3.10960014219618	243             	;
 21763           	4.66        	8.63853703486111	244             	;
 21859           	3.985       	11.8990919910417	243             	;
 22374           	3.942       	0.440176327439779	236             	;
 22552           	3.894       	2.22287039569444	234             	;
 22573           	3.377       	1.45281645750868	240             	;
 22604           	3.89        	0.806110663420139	240             	;
 22609           	3.677       	0.700092653929037	236             	;
 22611           	4.047       	0.284586141046007	236             	;
 22618           	4.191       	1.07575523871528	236             	;
 22631           	3.698       	0.409443646111111	243             	;
 22632           	3.545       	0.397530236510417	243             	;
 22633           	3.573       	0.77342374078125	243             	;
 22705           	0           	3.06195253138889	243             	;
 22713           	3.4         	2.50612700236545	243             	;
 22721           	3.905       	2.33796386275608	240             	;
 22726           	3.508       	1.45949815220486	240             	;
 22727           	3.736       	1.55985254430556	240             	;
 22732           	3.26        	1.02851917111111	243             	;
 22750           	5.061       	2.8102759128125	235             	;
 22767           	3.478       	0.315671614207899	235             	;
 22770           	4.313       	0.0337511421782769	234             	;
 22775           	2.993       	0.302463147280816	234             	;
 22788           	3.789       	1.15434260521251	245             	;
 22790           	3.146       	0.691857406744792	240             	;
 22800           	4.56        	3.83620215708333	235             	;
 22814           	3.383       	3.18753560770182	239             	;
 22830           	4.515       	3.52877242882812	235             	;
 22856           	3.241       	2.08486283479167	240             	;
 22875           	4.111       	0.589206695376519	240             	;
 22878           	3.595       	1.58645657696723	240             	;
 22884           	4.648       	5.15884125118489	235             	;
 22893           	2.959       	1.40473288890191	240             	;
 22904           	3.747       	1.0947658127691	240             	;
 22923           	3.377       	1.71433699375868	240             	;
 22936           	3.412       	0.844591552743056	240             	;
 22944           	3.783       	1.40421850985677	240             	;
 22945           	3.806       	0.671259601805555	240             	;
 22969           	4.157       	1.01846661956597	240             	;
 22973           	3.748       	0.884205314357639	240             	;
 22974           	3.842       	0.684925591618924	240             	;
 22975           	3.856       	4.12354299302083	240             	;
 22995           	3.129       	2.33277422241645	240             	;
 23010           	4.953       	2.03588221849609	235             	;
 23057           	4.04        	0.459581850850695	240             	;
 23061           	4.128       	0.523119333428819	240             	;
 23118           	3.156       	20.2226915924957	237             	;
 23125           	3.178       	18.1961276960807	237             	;
 23138           	4.9         	2.0292379928342	243             	;
 23168           	3.844       	1.08234147730035	235             	;
 23211           	3.65        	2.41628061420139	243             	;
 23216           	3.776       	2.580208933125	243             	;
 23239           	3.159       	2.62377096944336	245             	;
 23275           	3.754       	1.82554202982747	245             	;
 23301           	3.019       	1.08036578194661	245             	;
 23315           	3.071       	0.681526489392361	245             	;
 23325           	3.524       	2.32038370895699	245             	;
 23336           	3.394       	0.445472747011719	245             	;
 23337           	3.4         	0.0148885203273335	239             	;
 23362           	3.679       	1.87643510974501	245             	;
 23375           	4.167       	0.906318015225695	240             	;
 23403           	3.608       	1.91096299348958	240             	;
 23413           	3.721       	0.887376567834201	240             	;
 23420           	3.536       	2.61946303220486	240             	;
 23433           	3.432       	1.84719086092882	240             	;
 23447           	5.617       	4.21922696504774	240             	;
 23474           	4.204       	2.03063317531684	240             	;
 23486           	4.277       	0.772468152821181	240             	;
 23516           	3.929       	1.72059303628472	244             	;
 23518           	4.4         	1.47138020541667	244             	;
 23539           	4.481       	0.786894253229167	240             	;
 23542           	3.877       	1.41644381614149	240             	;
 23606           	3.518       	1.91039414948134	243             	;
 23647           	3.586       	1.94137785493056	240             	;
 23649           	5.549       	2.31338198065538	235             	;
 23680           	3.439       	0.0149405215387648	239             	;
 23685           	3.979       	1.86309907947266	245             	;
 23697           	3.104       	2.59177100285373	245             	;
 23709           	2.884       	0.0452856537258664	239             	;
 23710           	3.818       	0.163028353333333	239             	;
 23711           	3.987       	0.833678201875	240             	;
 23720           	3.292       	1.25756092144097	240             	;
 23749           	0           	3.29377941755208	240             	;
 23767           	3.514       	1.56082541071615	243             	;
 23771           	4.531       	1.4281224671875	243             	;
 23774           	0           	1.53103088765191	244             	;
 23781           	0           	2.13929478513889	237             	;
 23783           	0           	11.6758499143707	237             	;
 23788           	0           	3.09558229957465	243             	;
 23798           	3.571       	1.11180156222331	243             	;
 23807           	4.214       	6.99881272937392	235             	;
 23808           	3.881       	0.992181428541667	235             	;
 23810           	3.917       	0.766095245590278	235             	;
 23812           	5.228       	0.114203702300347	236             	;
 23834           	4.031       	0.477226794290365	236             	;
 23846           	3.618       	0.0831779540972222	236             	;
 23859           	3.109       	0.179326446850043	236             	;
 23874           	1.834       	0.0476620945486111	236             	;
 23875           	3.71        	0.0567092255598958	236             	;
 23884           	4.699       	0.241252686233724	236             	;
 23936           	3.219       	0.07969710875	236             	;
 23945           	3.835       	13.2968106418349	235             	;
 23947           	2.896       	0.799471915 	235             	;
 23958           	3.697       	0.191853056970486	236             	;
 23985           	3.595       	0.105921680651042	236             	;
 24018           	3.824       	0.135254192222222	236             	;
 24040           	4.909       	0.55945860312934	236             	;
 24071           	3.389       	0.284368059947917	236             	;
 24099           	3.935       	0.815327116143663	236             	;
 24181           	4.757       	0.164673085429688	236             	;
 24184           	4.65        	3.07357825613498	235             	;
 24194           	3.86        	0.0631931316666667	236             	;
 24196           	3.978       	0.108778102743056	236             	;
 24213           	4.138       	4.29225775140191	235             	;
 24221           	3.902       	4.16324643207031	235             	;
 24243           	3.7         	2.76490361209635	235             	;
 24244           	3.616       	2.2612485602908	235             	;
 24256           	3.663       	0.714312801223958	236             	;
 24260           	4.002       	0.0843952753053264	235             	;
 24264           	3.953       	0.153581867534722	236             	;
 24309           	5.225       	0.115676786770833	236             	;
 24311           	5.966       	0.138902329455295	236             	;
 24314           	5.17        	0.149962900529514	236             	;
 24338           	3.597       	0.168945017782118	236             	;
 24348           	3.678       	0.230064045434028	236             	;
 24389           	3.054       	0.751708223333333	236             	;
 24421           	2.891       	5.08688631017795	235             	;
 24449           	3.208       	4.19500839659505	235             	;
 24489           	4.08        	0.171432581957465	236             	;
 24508           	3.601       	0.0924454132291666	236             	;
 24518           	3.896       	0.235254487042101	236             	;
 24521           	3.742       	0.59892170289171	236             	;
 24551           	3.193       	0.889707577003038	236             	;
 24568           	3.767       	0.329836489125434	236             	;
 24569           	3.998       	0.352659349299045	236             	;
 24580           	2.694       	0.835299096777344	236             	;
 24592           	4.459       	2.35322709482205	234             	;
 24647           	4.852       	2.2956040862717	234             	;
 24661           	3.985       	0.767750478581272	236             	;
 24682           	3.753       	1.06362533395454	236             	;
 24701           	3.999       	0.300219017394206	236             	;
 24702           	4.449       	0.484667989210069	234             	;
 24715           	4.599       	0.111035488055556	234             	;
 24717           	3.961       	1.87044245694444	243             	;
 24725           	4.12        	0.512634743958333	234             	;
 24737           	3.684       	2.87839263866536	243             	;
 24743           	4.313       	1.77723173908637	243             	;
 24747           	4.364       	0.41079529625	244             	;
 24754           	4.342       	1.18411194391276	243             	;
 24756           	3.974       	2.69888829609158	243             	;
 24774           	3.514       	2.24762271069444	243             	;
 24784           	3.509       	3.40163289684896	245             	;
 24794           	2.597       	3.06094116972222	243             	;
 24802           	2.793       	1.14266009788194	243             	;
 24808           	3.135       	0.0123228341666667	236             	;
 24815           	4.321       	0.936003766944444	243             	;
 24835           	4.06        	3.51424223003038	243             	;
 24854           	3.773       	3.10033266233073	239             	;
 24872           	4.475       	1.25644841878472	239             	;
 24879           	4.503       	1.11097089642361	239             	;
 24922           	4.67        	1.46539287616319	244             	;
 24945           	3.624       	1.93492337565972	244             	;
 24951           	4.461       	1.16099193637153	244             	;
 24974           	3.759       	1.33931649788194	244             	;
 24982           	3.638       	0.259534329479167	244             	;
 24984           	4.074       	2.73377272734375	244             	;
 24985           	3.3         	0.628375642543403	243             	;
 24998           	4.586       	2.68523429362847	243             	;
 25037           	3.83        	10.0626302740278	241             	;
 25063           	5.437       	5.74700406291667	241             	;
 25088           	3.965       	4.13860850694444E-05	236             	;
 25100           	3.786       	1.03628647920139	246             	;
 25107           	3.488       	2.15427728923611	246             	;
 25118           	3.787       	1.88735783842014	246             	;
 25129           	3.573       	1.87714557881944	246             	;
 25146           	3.719       	4.52844635164497	244             	;
 25203           	3.685       	2.02779920224392	244             	;
 25239           	3.37        	3.33605081861111	243             	;
 25246           	4.435       	2.03018919804687	235             	;
 25249           	3.756       	2.60015901402638	237             	;
 25257           	3.613       	1.87044605293403	244             	;
 25267           	3.538       	1.58744584666667	244             	;
 25277           	3.817       	2.51615115960069	243             	;
 25279           	4.973       	1.78944191048611	243             	;
 25306           	3.435       	2.42796389289062	243             	;
 25309           	3.85        	2.71217734858073	243             	;
 25318           	2.857       	3.20710806604601	243             	;
 25329           	2.677       	4.90570143734375	243             	;
 25345           	3.735       	22.5949316131793	237             	;
 25359           	3.32        	20.1267443084223	237             	;
 25362           	4.168       	14.2252427983095	237             	;
 25363           	3.676       	2.43174955220486	243             	;
 25385           	3.352       	2.65459545557292	244             	;
 25388           	3.517       	11.6657826140169	237             	;
 25390           	3.665       	13.151120307079	237             	;
 25392           	3.309       	2.28437312952691	243             	;
 25399           	3.302       	1.52386726477431	243             	;
 25416           	3.666       	0.521558977673611	243             	;
 25425           	3.702       	2.05984570414497	243             	;
 25429           	3.667       	0.0459418420833333	243             	;
 25431           	0           	1.92292934590278	243             	;
 25574           	4.76        	7.20137334826389	240             	;
 25867           	2.97        	2.76521395203559	240             	;
 25907           	3.35        	0.927148241729601	238             	;
 25913           	4.14        	1.30489335793403	238             	;
 25914           	4.47        	0.886998510555556	238             	;
 25929           	3.81        	0.000212697466288556	236             	;
 25934           	3.21        	2.10647753285159	245             	;
 26007           	3.96        	0.621630404652778	241             	;
 26026           	3.79        	0.672730603819444	240             	;
 26101           	3.03        	4.52013962820054	245             	;
 26141           	4.4         	1.21907421625868	238             	;
 26156           	3.8         	3.74055837280382	240             	;
 26178           	4.15        	1.10877474599392	240             	;
 26195           	3.58        	2.1063670031467	240             	;
 26202           	3.67        	0.165457093888889	240             	;
 26207           	4.68        	6.61075161119141	240             	;
 26220           	4.65        	2.02930770322049	238             	;
 26268           	4.25        	1.72631365965278	240             	;
 26289           	4.86        	4.6042577482053	240             	;
 26293           	4.39        	8.11513552861111	240             	;
 26413           	4.65        	4.55724565177734	239             	;
 26458           	3.73        	3.29884586088759	238             	;
 26479           	3.97        	2.92751985625	240             	;
 26503           	4.42        	1.73524778578993	240             	;
 26567           	3.55        	7.92629823358941	240             	;
 26576           	3.86        	2.98734939152778	239             	;
 26578           	3.97        	0.439501584027778	240             	;
 26701           	4.56        	3.99156824148003	240             	;
 26936           	3.87        	2.49340093840278	246             	;
 26944           	3.76        	1.06343243784722	245             	;
 26989           	2.47        	0.000638092398865667	236             	;
 26994           	3.24        	1.53945597625868	241             	;
 27008           	3.63        	0.306808294722222	241             	;
 27062           	2.27        	2.09125259212875	241             	;
 27162           	3.71        	0.0842201251963976	236             	;
 27248           	3.88        	1.05442501225694	245             	;
 27250           	3.75        	1.63068097521701	245             	;
 27251           	4.05        	0.98747881078125	245             	;
 27252           	3.74        	0.715496843888889	245             	;
 27266           	3.81        	1.82722491427083	245             	;
 27330           	3.22        	0.698798327434896	245             	;
 27367           	3.68        	0.345730076458333	245             	;
 27372           	4.02        	0.509108680364583	245             	;
 27455           	4.03        	1.06793635894531	245             	;
 27464           	3.32        	1.32742009527344	245             	;
 27510           	3.81        	0.0117478625	238             	;
 27533           	3.96        	0.95040898907118	245             	;
 27568           	3.79        	0.755401623602431	245             	;
 27570           	2.96        	0.000201145693060199	241             	;
 27688           	4.12        	0.000301259867975753	243             	;
 27689           	4.09        	0.731597868784722	245             	;
 27690           	3.84        	4.740590025 	241             	;
 27744           	3.12        	0.152155789652778	245             	;
 27785           	4.15        	1.79155671519097	246             	;
 27788           	3.96        	1.53996882842882	246             	;
 27860           	4.18        	0.787459702612847	238             	;
 27882           	5.11        	0.00997897258600253	243             	;
 27955           	3.65        	0.0613612168543837	236             	;
 27984           	3.77        	3.46074107195095	238             	;
 28002           	3.9         	3.07788120503472	245             	;
 28010           	3.8         	0.839757620347222	245             	;
 28024           	3.71        	0.57356923625	245             	;
 28050           	4.05        	0.566169818923611	245             	;
 28057           	3.96        	0.460949233020833	245             	;
 28062           	3.75        	0.782770148333333	245             	;
 28067           	3.78        	0.6891981640625	245             	;
 28069           	3.8         	0.168252374027778	245             	;
 28073           	3.73        	0.4021489625	245             	;
 28080           	3.83        	0.0437187183333333	245             	;
 28089           	3.8         	9.97507348472222	245             	;
 28104           	3.87        	4.54407766174913	245             	;
 28146           	3.94        	2.53583683485243	245             	;
 28147           	3.83        	2.13407568197049	245             	;
 28174           	3.84        	0.764419703819444	245             	;
 28212           	3.82        	0.786604590277778	245             	;
 28216           	3.62        	1.99227107333333	245             	;
 28225           	3.72        	1.2191916884375	245             	;
 28237           	4.5         	0.972624271736111	245             	;
 28239           	3.83        	0.589381486979167	245             	;
 28241           	3.86        	0.520518806493056	245             	;
 28294           	3.92        	2.18837462263889	245             	;
 28364           	3.7         	1.15110460621094	245             	;
 28378           	4.57        	2.95393838777778	245             	;
 28380           	4.25        	1.44122413527778	245             	;
 28386           	4.03        	0.325325030277778	245             	;
 28391           	3.65        	0.162810544270833	245             	;
 28392           	3.65        	0.591416747083333	245             	;
 28403           	3.71        	0.650498935902778	245             	;
 28405           	3.74        	0.872861612708333	245             	;
 28446           	2.82        	11.6582101173003	241             	;
 28460           	4.41        	2.52725450670139	245             	;
 28464           	3.99        	0.881536317100694	245             	;
 28485           	3.99        	6.83214995232639	246             	;
 28503           	3.85        	1.63041170106771	245             	;
 28530           	3.66        	0.777113857621528	245             	;
 28535           	4.09        	0.748992048055556	245             	;
 28536           	3.8         	0.634782016979167	245             	;
 28548           	4.23        	0.936441142239583	245             	;
 28550           	4.18        	0.791890936475694	245             	;
 28563           	3.53        	1.70825738652778	246             	;
 28564           	3.94        	2.13609788469184	246             	;
 28573           	3.55        	1.20435645791667	245             	;
 28581           	4.06        	3.48895825679688	245             	;
 28586           	3.86        	0.457953550486111	245             	;
 28588           	3.7         	0.491560631388889	245             	;
 28590           	4.23        	1.29590546019097	245             	;
 28592           	3.77        	3.63115015118924	245             	;
 28600           	3.8         	1.52548776909722	245             	;
 28618           	3.91        	0.832597755659722	245             	;
 28621           	3.55        	2.14402206934028	246             	;
 28644           	3.49        	0.00460939340389503	243             	;
 28663           	5.19        	5.95811625572917	246             	;
 28689           	3.75        	1.39861677100694	245             	;
 28691           	4.63        	1.34326553815972	246             	;
 28698           	4.02        	1.69797329769097	246             	;
 28770           	3.8         	1.83082145221571	238             	;
 28800           	4.53        	0.672636809699436	236             	;
 29344           	3.81        	0.741944505451389	245             	;
 29355           	4.34        	1.80304131685764	245             	;
 29515           	2.4         	0.489123048021919	240             	;
 29520           	3.3         	0.587201655208333	240             	;
 29525           	3.37        	0.749676072707248	240             	;
 29527           	2.69        	0.545717416972656	240             	;
 29537           	3.41        	1.01891988444444	240             	;
 29541           	3.8         	1.97210054555556	240             	;
 29582           	2.68        	0.502470268328993	240             	;
 31692           	2.76        	0.882886989409722	240             	;
 31698           	3.44        	0.48337881109375	240             	;
 31732           	4.47        	0.274543341987847	240             	;
 31733           	3.52        	2.93858989581055	240             	;
 31758           	3.22        	0.849969279051649	240             	;
 32125           	4.07        	0.304830884574653	240             	;
 32136           	2.94        	1.79940111357205	240             	;
 32144           	3.02        	0.688074410564236	240             	;
 32148           	3.02        	0.354742758506944	240             	;
 32178           	3.09        	1.5692713480816	240             	;
 32188           	3.65        	1.65907014424479	240             	;
 32201           	4.15        	0.289859425277778	240             	;
 32220           	3.99        	2.06215438102483	240             	;
 32244           	3.41        	0.996543429674479	240             	;
 32246           	3.73        	1.88462930690104	240             	;
 32250           	4.15        	0.769711421948785	240             	;
 32267           	3.2         	5.21253971304579	240             	;
 32269           	3.73        	1.4435002632053	240             	;
 32286           	3.66        	1.56901547572917	240             	;
 32291           	3.61        	0.432958599565972	240             	;
 32299           	3.42        	3.3853857579069	240             	;
 32305           	4.22        	6.76646632853461	243             	;
 32306           	3.28        	1.59208619247396	240             	;
 32320           	3.47        	4.3408651920855	240             	;
 32329           	4.47        	2.68974069984158	240             	;
 32337           	3.89        	5.81302339852105	240             	;
 32381           	3.68        	0.514765400017361	240             	;
 32418           	3.56        	0.546835045555556	240             	;
 32447           	4           	0.786344783528646	240             	;
 32468           	4.1         	1.0507390647309	240             	;
 32471           	4.24        	0.524635167152778	240             	;
 32513           	3.29        	1.91431461359592	240             	;
 32528           	2.82        	6.82217290106445	240             	;
 32535           	3.09        	2.09333363067925	240             	;
 32583           	3.32        	0.950931468914931	240             	;
 32613           	3.43        	0.771484220078125	240             	;
 32620           	3.4         	0.899732405868056	240             	;
 32624           	3.43        	0.379924389236111	240             	;
 32633           	3.92        	4.30563917639757	240             	;
 32641           	4.82        	1.59687359246094	240             	;
 32642           	4.82        	0.489878049375	240             	;
 32648           	3.56        	1.16057390826389	240             	;
 32664           	3.43        	0.989919105763889	240             	;
 32669           	3.64        	0.847433347638889	240             	;
 32671           	3.43        	1.62732169682292	240             	;
 32683           	3.1         	0.616713353953993	240             	;
 32696           	3.36        	0.955917272063802	240             	;
 32709           	3.15        	0.383430633628472	240             	;
 32716           	3.41        	1.06433365326389	240             	;
 32731           	3.86        	1.38278927020833	240             	;
 32737           	4.1         	4.73350866715604	240             	;
 32760           	3.48        	1.00600723697049	240             	;
 32770           	3.15        	0.441011348333333	240             	;
 32776           	3.86        	5.37171835817057	240             	;
 32822           	3.64        	1.22228851638889	240             	;
 32831           	4.23        	3.46431126479818	240             	;
 32835           	4.4         	2.55681040677517	240             	;
 32846           	4.44        	0.938262819097222	240             	;
 32880           	3.52        	0.761091167070313	240             	;
 32887           	3.82        	0.803245968611111	240             	;
 32911           	3.92        	1.19860652479601	240             	;
 32918           	4.07        	6.52477117476888	240             	;
 32928           	3.59        	0.25234354469184	240             	;
 32931           	3.54        	0.3468096909375	240             	;
 32945           	3.51        	0.394148805080838	240             	;
 32971           	3.35        	0.552284985104167	240             	;
 32978           	4.24        	1.68892508441406	240             	;
 32986           	3.79        	0.466057475455187	240             	;
 32989           	3.09        	0.801969017363281	240             	;
 33002           	3.99        	1.94069777773872	240             	;
 33015           	3.73        	3.08419752955078	240             	;
 33023           	3.59        	1.05376342628472	240             	;
 33036           	3.6         	1.31540575265191	240             	;
 33043           	3.16        	4.60138888627821	240             	;
 33047           	3.77        	0.7472438878125	240             	;
 33051           	3.53        	0.391594675724826	240             	;
 33059           	3.7         	0.723780029958767	240             	;
 33063           	3.68        	1.99814524699436	240             	;
 33196           	4.17        	3.11201513147135	243             	;
 33204           	3.26        	3.87472588277778	243             	;
 33437           	3.67        	3.24059373096354	243             	;
 33444           	4.06        	4.13576205949653	243             	;