; Filename: data/Exa7.inp
; WNTR: 1.4.0
; Created: 2026-02-10 17:34:48
[TITLE]
Scenario: Base
Date: 2015/3/7 9:56:25

[JUNCTIONS]
;ID                      Elevation       Demand Pattern                 
 32                               902               0                            ;
 33                               909               0                            ;
 34                               909               0                            ;
 35                               892          60.984 881                        ;
 36                               900               0                            ;
 37                               898               0                            ;
 38                               899               0                            ;
 39                               899               0                            ;
 40                             898.5               0                            ;
 41                               892               0                            ;
 42                               893               0                            ;
 43                               893               0                            ;
 44                               892               0                            ;
 45                               894               0                            ;
 46                               895               0                            ;
 47                               898               0                            ;
 48                               897               0                            ;
 49                               899               0                            ;
 50                               899               0                            ;
 51                             897.5               0                            ;
 52                             897.5               0                            ;
 53                             897.5               0                            ;
 54                             897.5               0                            ;
 55                             897.5               0                            ;
 56                             897.5               0                            ;
 57                               897               0                            ;
 58                               897               0                            ;
 59                               891               0                            ;
 60                               891               0                            ;
 61                               891               0                            ;
 62                               891               0                            ;
 63                               890               0                            ;
 64                             890.5               0                            ;
 65                               891               0                            ;
 66                               891               0                            ;
 67                             890.5               0                            ;
 68                             890.5               0                            ;
 69                             890.5               0                            ;
 70                               891               0                            ;
 71                               892               0                            ;
 72                               891               0                            ;
 73                               892               0                            ;
 74                               892               0                            ;
 75                               892               0                            ;
 76                               891               0                            ;
 77                               891               0                            ;
 78                               889               0                            ;
 79                               888               0                            ;
 80                             888.5               0                            ;
 81                             888.5               0                            ;
 82                             888.5               0                            ;
 83                             888.5               0                            ;
 84                             888.5               0                            ;
 85                               888               0                            ;
 86                               889               0                            ;
 87                               887               0                            ;
 88                               890               0                            ;
 89                               890               0                            ;
 90                               890               0                            ;
 91                               890               0                            ;
 92                               900           5.796                            ;
 93                               900        1.251936 881                        ;
 94                               900        1.251936                            ;
 95                               895        1.251936                            ;
 96                               895          6.9552                            ;
 97                               900        1.251936                            ;
 98                               900        2.503872 881                        ;
 99                               898        2.503872 881                        ;
 100                              897           5.796                            ;
 101                              897          7.7616 881                        ;
 102                              897          7.7616 881                        ;
 103                              897          37.197                            ;
 104                              897          6.9552 881                        ;
 105                              897          6.9552 881                        ;
 106                              899           5.796 881                        ;
 107                              898          7.7616                            ;
 108                              898          7.7616 881                        ;
 109                              899          6.9552 881                        ;
 110                            898.5          6.9552                            ;
 111                              899           5.796 881                        ;
 112                              900           5.796                            ;
 113                              900           5.796                            ;
 114                            899.5          6.9552                            ;
 115                              899           5.796                            ;
 116                              899        5.007744 881                        ;
 117                              899        5.007744 881                        ;
 118                              895           5.796 881                        ;
 119                              895           5.796                            ;
 120                              895        5.007744 881                        ;
 121                              895           5.796 881                        ;
 122                              895        3.755808                            ;
 123                              892           5.796 881                        ;
 124                              894           5.796                            ;
 125                            894.5         13.3056                            ;
 126                              895        2.503872 881                        ;
 127                              895           5.796 881                        ;
 128                              894           5.796 881                        ;
 129                              893         36.5904                            ;
 130                              893          7.7616                            ;
 131                              893        5.007744                            ;
 132                              893         13.3056 881                        ;
 133                              893        3.755808 881                        ;
 134                              894        5.007744 881                        ;
 135                            894.5           5.796                            ;
 136                              894        5.007744 881                        ;
 137                              896          8.8704                            ;
 138                            895.5          6.9552                            ;
 139                              897          8.8704 881                        ;
 140                              897           5.796 881                        ;
 141                              897          8.8704 881                        ;
 142                              896           5.796                            ;
 143                              897           5.796 881                        ;
 144                              893          8.8704                            ;
 145                              894           5.796                            ;
 146                            898.5           5.796 881                        ;
 147                            898.5          8.8704 881                        ;
 148                              898           21.15 881                        ;
 149                            898.5           5.796                            ;
 150                              898          8.8704                            ;
 151                              898           5.796                            ;
 152                              899           5.796                            ;
 153                              899          7.7616 881                        ;
 154                              899           5.796 881                        ;
 155                              899           5.796 881                        ;
 156                              899          6.9552                            ;
 157                              899           5.796                            ;
 158                            899.5           5.796                            ;
 159                            899.5          7.7616                            ;
 160                            899.5           5.796                            ;
 161                            899.5           5.796 881                        ;
 162                              899           5.796 881                        ;
 163                              898        5.007744                            ;
 164                              898           5.796                            ;
 165                              898           5.796                            ;
 166                            898.5           5.796                            ;
 167                              897        5.007744                            ;
 168                              896           5.796 881                        ;
 169                              899           5.796 881                        ;
 170                              898           5.796 881                        ;
 171                              898        5.007744                            ;
 172                              897           5.796 881                        ;
 173                              899           5.796 881                        ;
 174                              901           5.796                            ;
 175                              899        5.007744 881                        ;
 176                              897           41.13                            ;
 177                              898           5.796 881                        ;
 178                              899           5.796                            ;
 179                            898.5        5.007744                            ;
 180                              898           5.796                            ;
 181                            898.5           5.796                            ;
 182                              897           5.796                            ;
 183                              897        5.007744                            ;
 184                              892           5.796                            ;
 185                              896           5.796 881                        ;
 186                              897           5.796 881                        ;
 187                              897        5.007744 881                        ;
 188                              900           5.796 881                        ;
 189                              903           5.796 881                        ;
 190                              902           5.796                            ;
 191                              901        5.007744                            ;
 192                              899           5.796 881                        ;
 193                              899           5.796 881                        ;
 194                              899           5.796 881                        ;
 195                              899        5.007744                            ;
 196                              899           5.796                            ;
 197                              899           5.796                            ;
 198                              899           5.796 881                        ;
 199                              899        5.007744 881                        ;
 200                              899           5.796                            ;
 201                              899           5.796                            ;
 202                              899           29.34                            ;
 203                              899        5.007744                            ;
 204                              900          8.8704 881                        ;
 205                              899           5.796                            ;
 206                              899        5.007744                            ;
 207                              892          7.7616 881                        ;
 208                              892           5.796 881                        ;
 209                              898           5.796                            ;
 210                              898          7.7616 881                        ;
 211                              898           5.796 881                        ;
 212                              898          7.7616                            ;
 213                              898           5.796 881                        ;
 214                              898           5.796 881                        ;
 215                              898          8.8704                            ;
 216                              898           5.796 881                        ;
 217                              899           5.796                            ;
 218                              898           5.796 881                        ;
 219                              899          9.9792 881                        ;
 220                              899           5.796                            ;
 221                              899          8.8704 881                        ;
 222                              897           5.796 881                        ;
 223                              897          8.8704                            ;
 224                              898           5.796 881                        ;
 225                              898          7.7616                            ;
 226                              898           5.796 881                        ;
 227                              898          6.9552 881                        ;
 228                              899          6.9552 881                        ;
 229                              899          6.9552 881                        ;
 230                              899           5.796 881                        ;
 231                              899           20.16 881                        ;
 232                              899           5.796 881                        ;
 233                              895          6.9552 881                        ;
 234                              895          6.9552 881                        ;
 235                              885           5.796 881                        ;
 236                              885           5.796 881                        ;
 237                              885        2.503872 881                        ;
 238                            887.5        2.503872 881                        ;
 239                            887.5        2.503872 881                        ;
 240                            887.5        2.503872                            ;
 241                            887.5           5.796 881                        ;
 242                            887.5        2.503872 881                        ;
 243                            887.5           5.796                            ;
 244                              888           5.796                            ;
 245                            887.5        2.503872                            ;
 246                              887         35.4816 881                        ;
 247                              887           5.796 881                        ;
 248                              887           5.796 881                        ;
 249                              887        2.503872 881                        ;
 250                            887.5           5.796 881                        ;
 251                            887.5           5.796 881                        ;
 252                            887.5           28.89                            ;
 253                              889           5.796                            ;
 254                              890        3.755808                            ;
 255                              889           5.796 881                        ;
 256                              889           5.796                            ;
 257                              889        3.755808 881                        ;
 258                            888.5           5.796 881                        ;
 259                            888.5           5.796 881                        ;
 260                            888.5        3.755808 881                        ;
 261                              888           5.796 881                        ;
 262                              888        3.755808 881                        ;
 263                              890           5.796 881                        ;
 264                            889.5           5.796 881                        ;
 265                            889.5        3.755808                            ;
 266                              889           5.796 881                        ;
 267                              889           5.796                            ;
 268                            889.5           5.796 881                        ;
 269                            889.5        3.755808 881                        ;
 270                            889.5           5.796                            ;
 271                            889.5           20.16                            ;
 272                              889        5.007744 881                        ;
 273                              889           5.796 881                        ;
 274                              889           5.796 881                        ;
 275                              890           5.796 881                        ;
 276                              892           5.796 881                        ;
 277                              892           5.796 881                        ;
 278                              891          8.8704                            ;
 279                              891           5.796                            ;
 280                              891           5.796 881                        ;
 281                              890           5.796 881                        ;
 282                              891          8.8704 881                        ;
 283                              891           5.796 881                        ;
 284                              893           5.796 881                        ;
 285                            891.5          8.8704 881                        ;
 286                              890           60.66 881                        ;
 287                              891           5.796 881                        ;
 288                              892          8.8704 881                        ;
 289                              891           5.796                            ;
 290                              892           5.796                            ;
 291                              891          8.8704                            ;
 292                            890.5           5.796                            ;
 293                              892           5.796 881                        ;
 294                              892          7.7616 881                        ;
 295                              892           5.796 881                        ;
 296                              891           5.796 881                        ;
 297                              891          7.7616 881                        ;
 298                              892           5.796                            ;
 299                              888           5.796                            ;
 300                              888          7.7616 881                        ;
 301                              888           5.796 881                        ;
 302                            888.5           5.796 881                        ;
 303                            888.5           5.796                            ;
 304                              888          6.9552 881                        ;
 305                              888           5.796                            ;
 306                              888           5.796 881                        ;
 307                              889           5.796                            ;
 308                            888.5           5.796                            ;
 309                            888.5           5.796                            ;
 310                              888        5.007744                            ;
 311                              888           5.796 881                        ;
 312                              888           5.796 881                        ;
 313                              888        3.755808 881                        ;
 314                              888           5.796                            ;
 315                              888           32.13                            ;
 316                              888        5.007744 881                        ;
 317                            888.5           5.796 881                        ;
 318                              889           5.796 881                        ;
 319                              889           5.796                            ;
 320                              889          8.8704 881                        ;
 321                            888.5           5.796 881                        ;
 322                            888.5           5.796                            ;
 323                              889          7.7616 881                        ;
 324                            888.5           5.796 881                        ;
 325                              889           5.796                            ;
 326                              889          7.7616 881                        ;
 327                              889           5.796                            ;
 328                              889          7.7616                            ;
 329                              889           5.796 881                        ;
 330                              889           5.796                            ;
 331                              889          6.9552 881                        ;
 332                              889           5.796 881                        ;
 333                              889           5.796 881                        ;
 334                              889           5.796 881                        ;
 335                              889           5.796 881                        ;
 336                              890           21.06 881                        ;
 337                              890          6.9552 881                        ;
 338                              890           5.796 881                        ;
 339                              890           5.796 881                        ;
 340                              890          7.7616 881                        ;
 341                            890.5           5.796 881                        ;
 342                            890.5           5.796                            ;
 343                            890.5           5.796 881                        ;
 344                              891          8.8704 881                        ;
 345                              891           5.796 881                        ;
 346                              891           5.796                            ;
 347                            890.5          9.9792 881                        ;
 348                            890.5           5.796 881                        ;
 349                            890.5           5.796 881                        ;
 350                            890.5          8.8704 881                        ;
 351                              891           5.796 881                        ;
 352                              892           5.796 881                        ;
 353                              893           5.796 881                        ;
 354                              893          7.7616                            ;
 355                              893           5.796 881                        ;
 356                              892           5.796 881                        ;
 357                              892          6.9552 881                        ;
 358                              892           5.796                            ;
 359                              892           5.796 881                        ;
 360                              892          7.7616 881                        ;
 361                              892           5.796 881                        ;
 362                              892           5.796 881                        ;
 363                              892           30.15 881                        ;
 364                              892           5.796 881                        ;
 365                              893           5.796 881                        ;
 366                              893          7.7616 881                        ;
 367                              893          7.7616 881                        ;
 368                              893           5.796 881                        ;
 369                              893           5.796                            ;
 370                              893          8.8704 881                        ;
 371                              893           5.796 881                        ;
 372                              893           5.796                            ;
 373                              893           5.796 881                        ;
 374                              893          8.8704 881                        ;
 375                              892           5.796 881                        ;
 376                              892           5.796 881                        ;
 377                              892          7.7616 881                        ;
 378                              892           5.796 881                        ;
 379                              893          7.7616 881                        ;
 380                              893           5.796 881                        ;
 381                            893.5          6.9552                            ;
 382                              893           5.796 881                        ;
 383                            893.5           5.796 881                        ;
 384                              893           40.23                            ;
 385                              893           5.796 881                        ;
 386                            893.5        3.755808 881                        ;
 387                            893.5           5.796 881                        ;
 388                              893           5.796                            ;
 389                              892        5.007744 881                        ;
 390                              892           5.796 881                        ;