[TITLE]
Scenario: Base 
Date: 2015/3/7 9:56:25 

[PATTERNS]
881 0.8 0.78 0.72 0.7 0.75 0.87 1.05 1.23 1.18 1.04 1.05 1.02 0.97 0.92 1.01 1.067 1.102 1.108 1.101 1.06 1.03 0.985 0.95 0.9 0.8  

[CURVES]
;PUMP:
408 0 75
408 1000 55
408 1300 20
;PUMP:
409 0 75
409 1000 55
409 1300 20
;PUMP:
410 0 75
410 1000 55
410 1300 20

[JUNCTIONS]
32 902 0 
33 909 0 
34 909 0 
35 892 0 
36 900 0 
37 898 0 
38 899 0 
39 899 0 
40 898.5 0 
41 892 0 
42 893 0 
43 893 0 
44 892 0 
45 894 0 
46 895 0 
47 898 0 
48 897 0 
49 899 0 
50 899 0 
51 897.5 0 
52 897.5 0 
53 897.5 0 
54 897.5 0 
55 897.5 0 
56 897.5 0 
57 897 0 
58 897 0 
59 891 0 
60 891 0 
61 891 0 
62 891 0 
63 890 0 
64 890.5 0 
65 891 0 
66 891 0 
67 890.5 0 
68 890.5 0 
69 890.5 0 
70 891 0 
71 892 0 
72 891 0 
73 892 0 
74 892 0 
75 892 0 
76 891 0 
77 891 0 
78 889 0 
79 888 0 
80 888.5 0 
81 888.5 0 
82 888.5 0 
83 888.5 0 
84 888.5 0 
85 888 0 
86 889 0 
87 887 0 
88 890 0 
89 890 0 
90 890 0 
91 890 0 
92 900 0 
93 900 0 
94 900 0 
95 895 0 
96 895 0 
97 900 0 
98 900 0 
99 898 0 
100 897 0 
101 897 0 
102 897 0 
103 897 0 
104 897 0 
105 897 0 
106 899 0 
107 898 0 
108 898 0 
109 899 0 
110 898.5 0 
111 899 0 
112 900 0 
113 900 0 
114 899.5 0 
115 899 0 
116 899 0 
117 899 0 
118 895 0 
119 895 0 
120 895 0 
121 895 0 
122 895 0 
123 892 0 
124 894 0 
125 894.5 0 
126 895 0 
127 895 0 
128 894 0 
129 893 0 
130 893 0 
131 893 0 
132 893 0 
133 893 0 
134 894 0 
135 894.5 0 
136 894 0 
137 896 0 
138 895.5 0 
139 897 0 
140 897 0 
141 897 0 
142 896 0 
143 897 0 
144 893 0 
145 894 0 
146 898.5 0 
147 898.5 0 
148 898 0 
149 898.5 0 
150 898 0 
151 898 0 
152 899 0 
153 899 0 
154 899 0 
155 899 0 
156 899 0 
157 899 0 
158 899.5 0 
159 899.5 0 
160 899.5 0 
161 899.5 0 
162 899 0 
163 898 0 
164 898 0 
165 898 0 
166 898.5 0 
167 897 0 
168 896 0 
169 899 0 
170 898 0 
171 898 0 
172 897 0 
173 899 0 
174 901 0 
175 899 0 
176 897 0 
177 898 0 
178 899 0 
179 898.5 0 
180 898 0 
181 898.5 0 
182 897 0 
183 897 0 
184 892 0 
185 896 0 
186 897 0 
187 897 0 
188 900 0 
189 903 0 
190 902 0 
191 901 0 
192 899 0 
193 899 0 
194 899 0 
195 899 0 
196 899 0 
197 899 0 
198 899 0 
199 899 0 
200 899 0 
201 899 0 
202 899 0 
203 899 0 
204 900 0 
205 899 0 
206 899 0 
207 892 0 
208 892 0 
209 898 0 
210 898 0 
211 898 0 
212 898 0 
213 898 0 
214 898 0 
215 898 0 
216 898 0 
217 899 0 
218 898 0 
219 899 0 
220 899 0 
221 899 0 
222 897 0 
223 897 0 
224 898 0 
225 898 0 
226 898 0 
227 898 0 
228 899 0 
229 899 0 
230 899 0 
231 899 0 
232 899 0 
233 895 0 
234 895 0 
235 885 0 
236 885 0 
237 885 0 
238 887.5 0 
239 887.5 0 
240 887.5 0 
241 887.5 0 
242 887.5 0 
243 887.5 0 
244 888 0 
245 887.5 0 
246 887 0 
247 887 0 
248 887 0 
249 887 0 
250 887.5 0 
251 887.5 0 
252 887.5 0 
253 889 0 
254 890 0 
255 889 0 
256 889 0 
257 889 0 
258 888.5 0 
259 888.5 0 
260 888.5 0 
261 888 0 
262 888 0 
263 890 0 
264 889.5 0 
265 889.5 0 
266 889 0 
267 889 0 
268 889.5 0 
269 889.5 0 
270 889.5 0 
271 889.5 0 
272 889 0 
273 889 0 
274 889 0 
275 890 0 
276 892 0 
277 892 0 
278 891 0 
279 891 0 
280 891 0 
281 890 0 
282 891 0 
283 891 0 
284 893 0 
285 891.5 0 
286 890 0 
287 891 0 
288 892 0 
289 891 0 
290 892 0 
291 891 0 
292 890.5 0 
293 892 0 
294 892 0 
295 892 0 
296 891 0 
297 891 0 
298 892 0 
299 888 0 
300 888 0 
301 888 0 
302 888.5 0 
303 888.5 0 
304 888 0 
305 888 0 
306 888 0 
307 889 0 
308 888.5 0 
309 888.5 0 
310 888 0 
311 888 0 
312 888 0 
313 888 0 
314 888 0 
315 888 0 
316 888 0 
317 888.5 0 
318 889 0 
319 889 0 
320 889 0 
321 888.5 0 
322 888.5 0 
323 889 0 
324 888.5 0 
325 889 0 
326 889 0 
327 889 0 
328 889 0 
329 889 0 
330 889 0 
331 889 0 
332 889 0 
333 889 0 
334 889 0 
335 889 0 
336 890 0 
337 890 0 
338 890 0 
339 890 0 
340 890 0 
341 890.5 0 
342 890.5 0 
343 890.5 0 
344 891 0 
345 891 0 
346 891 0 
347 890.5 0 
348 890.5 0 
349 890.5 0 
350 890.5 0 
351 891 0 
352 892 0 
353 893 0 
354 893 0 
355 893 0 
356 892 0 
357 892 0 
358 892 0 
359 892 0 
360 892 0 
361 892 0 
362 892 0 
363 892 0 
364 892 0 
365 893 0 
366 893 0 
367 893 0 
368 893 0 
369 893 0 
370 893 0 
371 893 0 
372 893 0 
373 893 0 
374 893 0 
375 892 0 
376 892 0 
377 892 0 
378 892 0 
379 893 0 
380 893 0 
381 893.5 0 
382 893 0 
383 893.5 0 
384 893 0 
385 893 0 
386 893.5 0 
387 893.5 0 
388 893 0 
389 892 0 
390 892 0 
391 892 0 
392 893 0 
393 894 0 
394 894 0 
395 893 0 
396 894 0 
397 893 0 
398 893 0 
399 893 0 
400 893 0 
401 897 0 
402 897 0 
403 896 0 
404 896 0 
405 896 0 
406 897 0 
408-A 909 0 
408-B 909 0 
409-A 909 0 
409-B 909 0 
410-A 909 0 
410-B 909 0 

[RESERVOIRS]
407 912 

[TANKS]
882 925 50 40 70 35 0.1 

[DEMANDS]
35 60.984 881 
92 5.796 
93 1.251936 881 
94 1.251936 
95 1.251936 
96 6.9552 
97 1.251936 
98 2.503872 881 
99 2.503872 881 
100 5.796 
101 7.7616 881 
102 7.7616 881 
103 37.197 
104 6.9552 881 
105 6.9552 881 
106 5.796 881 
107 7.7616 
108 7.7616 881 
109 6.9552 881 
110 6.9552 
111 5.796 881 
112 5.796 
113 5.796 
114 6.9552 
115 5.796 
116 5.007744 881 
117 5.007744 881 
118 5.796 881 
119 5.796 
120 5.007744 881 
121 5.796 881 
122 3.755808 
123 5.796 881 
124 5.796 
125 13.3056 
126 2.503872 881 
127 5.796 881 
128 5.796 881 
129 36.5904 
130 7.7616 
131 5.007744 
132 13.3056 881 
133 3.755808 881 
134 5.007744 881 
135 5.796 
136 5.007744 881 
137 8.8704 
138 6.9552 
139 8.8704 881 
140 5.796 881 
141 8.8704 881 
142 5.796 
143 5.796 881 
144 8.8704 
145 5.796 
146 5.796 881 
147 8.8704 881 
148 21.15 881 
149 5.796 
150 8.8704 
151 5.796 
152 5.796 
153 7.7616 881 
154 5.796 881 
155 5.796 881 
156 6.9552 
157 5.796 
158 5.796 
159 7.7616 
160 5.796 
161 5.796 881 
162 5.796 881 
163 5.007744 
164 5.796 
165 5.796 
166 5.796 
167 5.007744 
168 5.796 881 
169 5.796 881 
170 5.796 881 
171 5.007744 
172 5.796 881 
173 5.796 881 
174 5.796 
175 5.007744 881 
176 41.13 
177 5.796 881 
178 5.796 
179 5.007744 
180 5.796 
181 5.796 
182 5.796 
183 5.007744 
184 5.796 
185 5.796 881 
186 5.796 881 
187 5.007744 881 
188 5.796 881 
189 5.796 881 
190 5.796 
191 5.007744 
192 5.796 881 
193 5.796 881 
194 5.796 881 
195 5.007744 
196 5.796 
197 5.796 
198 5.796 881 
199 5.007744 881 
200 5.796 
201 5.796 
202 29.34 
203 5.007744 
204 8.8704 881 
205 5.796 
206 5.007744 
207 7.7616 881 
208 5.796 881 
209 5.796 
210 7.7616 881 
211 5.796 881 
212 7.7616 
213 5.796 881 
214 5.796 881 
215 8.8704 
216 5.796 881 
217 5.796 
218 5.796 881 
219 9.9792 881 
220 5.796 
221 8.8704 881 
222 5.796 881 
223 8.8704 
224 5.796 881 
225 7.7616 
226 5.796 881 
227 6.9552 881 
228 6.9552 881 
229 6.9552 881 
230 5.796 881 
231 20.16 881 
232 5.796 881 
233 6.9552 881 
234 6.9552 881 
235 5.796 881 
236 5.796 881 
237 2.503872 881 
238 2.503872 881 
239 2.503872 881 
240 2.503872 
241 5.796 881 
242 2.503872 881 
243 5.796 
244 5.796 
245 2.503872 
246 35.4816 881 
247 5.796 881 
248 5.796 881 
249 2.503872 881 
250 5.796 881 
251 5.796 881 
252 28.89 
253 5.796 
254 3.755808 
255 5.796 881 
256 5.796 
257 3.755808 881 
258 5.796 881 
259 5.796 881 
260 3.755808 881 
261 5.796 881 
262 3.755808 881 
263 5.796 881 
264 5.796 881 
265 3.755808 
266 5.796 881 
267 5.796 
268 5.796 881 
269 3.755808 881 
270 5.796 
271 20.16 
272 5.007744 881 
273 5.796 881 
274 5.796 881 
275 5.796 881 
276 5.796 881 
277 5.796 881 
278 8.8704 
279 5.796 
280 5.796 881 
281 5.796 881 
282 8.8704 881 
283 5.796 881 
284 5.796 881 
285 8.8704 881 
286 60.66 881 
287 5.796 881 
288 8.8704 881 
289 5.796 
290 5.796 
291 8.8704 
292 5.796 
293 5.796 881 
294 7.7616 881 
295 5.796 881 
296 5.796 881 
297 7.7616 881 
298 5.796 
299 5.796 
300 7.7616 881 
301 5.796 881 
302 5.796 881 
303 5.796 
304 6.9552 881 
305 5.796 
306 5.796 881 
307 5.796 
308 5.796 
309 5.796 
310 5.007744 
311 5.796 881 
312 5.796 881 
313 3.755808 881 
314 5.796 
315 32.13 
316 5.007744 881 
317 5.796 881 
318 5.796 881 
319 5.796 
320 8.8704 881 
321 5.796 881 
322 5.796 
323 7.7616 881 
324 5.796 881 
325 5.796 
326 7.7616 881 
327 5.796 
328 7.7616 
329 5.796 881 
330 5.796 
331 6.9552 881 
332 5.796 881 
333 5.796 881 
334 5.796 881 
335 5.796 881 
336 21.06 881 
337 6.9552 881 
338 5.796 881 
339 5.796 881 
340 7.7616 881 
341 5.796 881 
342 5.796 
343 5.796 881 
344 8.8704 881 
345 5.796 881 
346 5.796 
347 9.9792 881 
348 5.796 881 
349 5.796 881 
350 8.8704 881 
351 5.796 881 
352 5.796 881 
353 5.796 881 
354 7.7616 
355 5.796 881 
356 5.796 881 
357 6.9552 881 
358 5.796 
359 5.796 881 
360 7.7616 881 
361 5.796 881 
362 5.796 881 
363 30.15 881 
364 5.796 881 
365 5.796 881 
366 7.7616 881 
367 7.7616 881 
368 5.796 881 
369 5.796 
370 8.8704 881 
371 5.796 881 
372 5.796 
373 5.796 881 
374 8.8704 881 
375 5.796 881 
376 5.796 881 
377 7.7616 881 
378 5.796 881 
379 7.7616 881 
380 5.796 881 
381 6.9552 
382 5.796 881 
383 5.796 881 
384 40.23 
385 5.796 881 
386 3.755808 881 
387 5.796 881 
388 5.796 
389 5.007744 881 
390 5.796 881 
391 5.796 881 
392 5.796 881 
393 7.7616 
394 5.796 881 
395 5.796 881 
396 6.9552 881 
397 5.796 
398 17.703 881 
399 5.796 881 
400 8.8704 881 
401 5.796 
402 5.796 881 
403 7.7616 
404 5.796 881 
405 5.796 881 
406 6.9552 881 

[EMITTERS]

[PUMPS]
408 408-A 408-B HEAD 408 SPEED 1  
409 409-A 409-B HEAD 409 SPEED 1  
410 410-A 410-B HEAD 410 SPEED 1  

[PIPES]
411 32 189 348 16 120 0 
412 190 32 105 16 120 0 
413 408-B 33 30 24 130 0 
414 34 408-A 30 24 130 0 
415 409-B 33 30 24 130 0 
416 34 409-A 30 24 130 0 
417 33 410-B 30 24 130 0 
418 32 33 759 24 130 0 
419 34 407 30 24 130 0 
420 410-A 34 30 24 130 0 
421 35 208 1404 16 120 0 
422 364 35 591 16 120 0 
423 38 36 2838 6 110 0 
424 38 37 432 6 110 0 
425 155 38 126 6 110 0 
426 40 39 231 6 110 0 
427 40 163 252 6 110 0 
428 151 40 375 6 110 0 
429 44 41 228 6 110 0 
430 41 131 84 6 110 0 
431 123 41 297 6 110 0 
432 42 43 300 6 110 0 
433 43 42 417 6 110 0 
434 44 43 267 6 110 0 
435 44 123 126 6 110 0 
436 145 44 270 6 110 0 
437 46 45 507 6 110 0 
438 46 145 282 6 110 0 
439 185 46 474 6 110 0 
440 48 47 237 6 110 0 
441 48 185 291 16 120 0 
442 186 48 342 16 120 0 
443 50 49 282 6 110 0 
444 50 109 450 16 120 0 
445 205 50 240 16 120 0 
446 57 51 486 6 110 0 
447 53 52 102 6 110 0 
448 53 54 303 6 110 0 
449 56 53 63 6 110 0 
450 56 55 90 6 110 0 
451 57 56 246 6 110 0 
452 58 57 171 6 110 0 
453 58 222 60 16 120 0 
454 102 58 384 16 120 0 
455 60 61 189 6 110 0 
456 60 59 57 6 110 0 
457 61 60 510 6 110 0 
458 62 61 591 6 110 0 
459 63 62 171 6 110 0 
460 63 291 273 12 115 0 
461 69 63 654 12 115 0 
462 65 64 318 6 110 0 
463 65 289 351 12 115 0 
464 291 65 321 12 115 0 
465 74 66 690 6 110 0 
466 66 68 87 6 110 0 
467 70 66 54 6 110 0 
468 68 67 249 6 110 0 
469 68 69 147 6 110 0 
470 292 69 186 12 115 0 
471 71 70 582 6 110 0 
472 73 71 285 6 110 0 
473 73 72 240 6 110 0 
474 74 73 72 6 110 0 
475 75 74 276 6 110 0 
476 76 75 663 6 110 0 
477 77 76 621 6 110 0 
478 77 275 468 8 110 0 
479 292 77 333 12 115 0 
480 83 78 630 6 110 0 
481 84 79 870 6 110 0 
482 82 80 948 6 110 0 
483 82 81 96 6 110 0 
484 85 82 465 6 110 0 
485 84 83 348 6 110 0 
486 85 84 276 6 110 0 
487 86 85 2139 6 110 0 
488 87 86 387 6 110 0 
489 87 250 147 6 110 0 
490 248 87 111 6 110 0 
491 90 88 621 6 110 0 
492 90 89 873 6 110 0 
493 91 90 285 6 110 0 
494 299 91 879 6 110 0 
495 94 92 771 6 110 0 
496 94 93 453 6 110 0 
497 161 94 1332 6 110 0 
498 95 233 132 6 110 0 
499 96 95 963 6 110 0 
500 96 99 954 16 120 0 
501 234 96 141 16 120 0 
502 98 97 270 6 110 0 
503 99 98 417 6 110 0 
504 99 232 318 16 120 0 
505 101 100 432 6 110 0 
506 100 222 339 6 110 0 
507 104 100 57 6 110 0 
508 102 101 333 6 110 0 
509 207 102 1071 16 120 0 
510 104 103 90 6 110 0 
511 105 104 213 6 110 0 
512 223 105 399 6 110 0 
513 107 224 309 16 120 0 
514 107 106 699 6 110 0 
515 108 107 147 16 120 0 
516 109 108 504 16 120 0 
517 111 110 264 6 110 0 
518 111 114 207 6 110 0 
519 112 111 306 6 110 0 
520 112 191 426 6 110 0 
521 113 112 210 6 110 0 
522 113 190 480 6 110 0 
523 114 113 303 6 110 0 
524 188 114 444 6 110 0 
525 116 115 363 6 110 0 
526 117 116 426 6 110 0 
527 117 160 387 8 110 0 
528 161 117 477 8 110 0 
529 118 185 243 8 110 0 
530 118 120 204 8 110 0 
531 119 118 318 6 110 0 
532 120 119 345 6 110 0 
533 122 120 141 8 110 0 
534 122 121 225 6 110 0 
535 137 122 183 8 110 0 
536 135 144 444 6 110 0 
537 124 136 138 6 110 0 
538 124 127 525 6 110 0 
539 125 124 99 6 110 0 
540 126 125 504 6 110 0 
541 127 126 132 6 110 0 
542 128 127 123 6 110 0 
543 134 128 498 6 110 0 
544 130 129 132 6 110 0 
545 129 145 216 6 110 0 
546 144 129 348 6 110 0 
547 130 132 111 6 110 0 
548 131 130 66 6 110 0 
549 132 131 138 6 110 0 
550 133 132 246 6 110 0 
551 144 133 114 6 110 0 
552 134 144 126 6 110 0 
553 135 138 228 6 110 0 
554 136 135 126 6 110 0 
555 137 136 477 6 110 0 
556 142 137 75 8 110 0 
557 139 138 297 6 110 0 
558 139 151 345 8 110 0 
559 142 139 147 8 110 0 
560 141 140 285 6 110 0 
561 141 142 420 6 110 0 
562 143 141 204 6 110 0 
563 143 183 312 6 110 0 
564 163 143 492 6 110 0 
565 165 146 627 6 110 0 
566 146 147 258 8 110 0 
567 162 146 273 8 110 0 
568 164 147 630 6 110 0 
569 147 149 207 8 110 0 
570 149 148 624 6 110 0 
571 148 163 168 6 110 0 
572 164 148 204 6 110 0 
573 149 155 534 8 110 0 
574 163 150 438 6 110 0 
575 152 151 432 8 110 0 
576 154 152 222 8 110 0 
577 154 153 189 6 110 0 
578 155 154 216 8 110 0 
579 158 156 411 6 110 0 
580 158 157 162 6 110 0 
581 159 158 102 6 110 0 
582 159 171 486 12 115 0 
583 160 159 258 12 115 0 
584 162 161 126 8 110 0 
585 166 162 624 6 110 0 
586 167 165 651 6 110 0 
587 182 164 813 6 110 0 
588 165 164 258 6 110 0 
589 166 165 273 6 110 0 
590 167 166 792 6 110 0 
591 182 167 336 6 110 0 
592 176 168 255 6 110 0 
593 175 169 435 6 110 0 
594 171 170 501 6 110 0 
595 173 171 375 12 115 0 
596 173 172 753 6 110 0 
597 174 173 486 12 115 0 
598 174 189 333 16 120 0 
599 175 174 630 6 110 0 
600 176 175 231 6 110 0 
601 188 176 345 6 110 0 
602 179 177 651 6 110 0 
603 177 181 309 6 110 0 
604 187 177 189 6 110 0 
605 179 178 285 6 110 0 
606 181 179 345 6 110 0 
607 181 180 168 6 110 0 
608 182 187 525 6 110 0 
609 183 182 354 6 110 0 
610 186 183 525 6 110 0 
611 184 208 1116 16 120 0 
612 185 184 1497 16 120 0 
613 187 186 348 16 120 0 
614 188 187 678 16 120 0 
615 189 188 858 16 120 0 
616 191 190 225 16 120 0 
617 204 191 399 16 120 0 
618 193 192 243 6 110 0 
619 193 195 255 16 120 0 
620 205 193 279 16 120 0 
621 196 194 531 6 110 0 
622 194 205 180 6 110 0 
623 200 194 258 6 110 0 
624 196 195 177 6 110 0 
625 195 204 384 16 120 0 
626 202 196 357 6 110 0 
627 198 197 114 6 110 0 
628 198 200 381 6 110 0 
629 206 198 291 6 110 0 
630 201 199 129 6 110 0 
631 201 200 354 6 110 0 
632 202 201 108 6 110 0 
633 203 202 273 6 110 0 
634 203 232 552 16 120 0 
635 204 203 624 16 120 0 
636 206 230 87 12 115 0 
637 231 206 171 12 115 0 
638 208 207 243 16 120 0 
639 211 209 222 6 110 0 
640 211 210 165 6 110 0 
641 225 211 300 6 110 0 
642 214 212 117 6 110 0 
643 214 213 171 6 110 0 
644 216 214 177 6 110 0 
645 216 215 96 6 110 0 
646 226 216 135 6 110 0 
647 229 217 270 6 110 0 
648 227 218 159 6 110 0 
649 228 219 303 6 110 0 
650 230 220 249 6 110 0 
651 231 221 153 6 110 0 
652 223 222 210 16 120 0 
653 224 223 180 16 120 0 
654 225 224 267 12 115 0 
655 226 225 183 12 115 0 
656 227 226 153 12 115 0 
657 228 227 138 12 115 0 
658 229 228 69 12 115 0 
659 230 229 114 12 115 0 
660 232 231 219 12 115 0 
661 233 382 1029 8 110 0 
662 234 233 936 8 110 0 
663 400 234 1671 16 120 0 
664 236 235 348 6 110 0 
665 236 237 405 6 110 0 
666 246 236 1035 6 110 0 
667 321 314 219 6 110 0 
668 314 243 351 6 110 0 
669 240 238 201 6 110 0 
670 240 239 165 6 110 0 
671 243 240 222 6 110 0 
672 242 241 309 6 110 0 
673 241 244 210 6 110 0 
674 245 241 24 6 110 0 
675 243 242 204 6 110 0 
676 244 243 270 6 110 0 
677 244 313 348 8 110 0 
678 301 244 174 6 110 0 
679 245 251 291 6 110 0 
680 246 245 255 6 110 0 
681 249 246 219 6 110 0 
682 248 247 252 6 110 0 
683 249 248 219 6 110 0 
684 251 249 234 6 110 0 
685 251 250 189 6 110 0 
686 300 251 240 6 110 0 
687 300 252 210 6 110 0 
688 275 253 855 8 110 0 
689 257 254 177 6 110 0 
690 258 302 216 6 110 0 
691 258 255 420 6 110 0 
692 257 256 411 6 110 0 
693 258 257 192 6 110 0 
694 273 258 231 6 110 0 
695 302 259 372 6 110 0 
696 303 260 369 6 110 0 
697 304 261 324 6 110 0 
698 305 262 435 6 110 0 
699 273 266 222 6 110 0 
700 315 322 219 6 110 0 
701 316 324 222 6 110 0 
702 308 317 231 6 110 0 
703 266 272 222 6 110 0 
704 265 271 225 6 110 0 
705 264 270 216 6 110 0 
706 264 263 222 6 110 0 
707 263 274 252 8 110 0 
708 275 263 105 8 110 0 
709 265 264 216 6 110 0 
710 266 265 219 6 110 0 
711 308 266 219 6 110 0 
712 272 267 420 6 110 0 
713 271 268 144 6 110 0 
714 270 269 225 6 110 0 
715 271 270 210 6 110 0 
716 272 271 216 6 110 0 
717 307 272 222 6 110 0 
718 273 309 219 8 110 0 
719 274 273 186 8 110 0 
720 277 276 444 6 110 0 
721 277 284 861 6 110 0 
722 285 277 336 6 110 0 
723 280 278 360 6 110 0 
724 280 279 477 6 110 0 
725 281 280 444 6 110 0 
726 281 285 642 6 110 0 
727 286 281 384 6 110 0 
728 282 283 918 6 110 0 
729 282 289 159 12 115 0 
730 287 282 372 12 115 0 
731 285 283 1101 6 110 0 
732 289 286 906 6 110 0 
733 288 287 483 12 115 0 
734 288 391 228 6 110 0 
735 400 288 702 12 115 0 
736 289 354 357 8 110 0 
737 290 293 156 6 110 0 
738 291 290 486 6 110 0 
739 296 292 1230 12 115 0 
740 295 293 282 6 110 0 
741 295 294 288 6 110 0 
742 296 295 417 6 110 0 
743 298 296 702 12 115 0 
744 298 297 276 6 110 0 
745 357 298 240 12 115 0 
746 299 306 165 6 110 0 
747 300 299 339 6 110 0 
748 301 300 165 6 110 0 
749 306 301 342 6 110 0 
750 305 312 216 6 110 0 
751 303 310 237 6 110 0 
752 302 309 234 6 110 0 
753 303 302 228 6 110 0 
754 304 303 213 6 110 0 
755 304 311 240 6 110 0 
756 305 304 252 6 110 0 
757 306 305 195 6 110 0 
758 313 306 216 6 110 0 
759 315 312 234 6 110 0 
760 316 311 231 6 110 0 
761 317 310 234 8 110 0 
762 307 323 228 6 110 0 
763 308 307 222 6 110 0 
764 309 308 225 6 110 0 
765 310 309 234 8 110 0 
766 311 310 222 8 110 0 
767 312 311 219 8 110 0 
768 313 312 198 8 110 0 
769 314 313 234 6 110 0 
770 315 314 198 6 110 0 
771 316 315 225 6 110 0 
772 317 316 216 6 110 0 
773 323 317 219 8 110 0 
774 319 318 171 6 110 0 
775 320 319 183 6 110 0 
776 320 325 231 6 110 0 
777 329 320 399 6 110 0 
778 322 329 228 6 110 0 
779 321 328 225 6 110 0 
780 322 321 195 6 110 0 
781 324 322 228 6 110 0 
782 323 331 222 8 110 0 
783 324 323 228 6 110 0 
784 330 324 225 6 110 0 
785 325 330 399 6 110 0 
786 326 325 213 6 110 0 
787 326 331 405 8 110 0 
788 332 326 327 8 110 0 
789 328 327 459 6 110 0 
790 329 328 201 6 110 0 
791 330 329 225 6 110 0 
792 331 330 222 6 110 0 
793 332 335 183 8 110 0 
794 333 332 348 6 110 0 
795 334 333 213 6 110 0 
796 335 334 288 6 110 0 
797 337 335 612 8 110 0 
798 338 336 414 6 110 0 
799 338 337 222 8 110 0 
800 340 338 267 8 110 0 
801 340 339 543 6 110 0 
802 347 340 279 8 110 0 
803 347 341 600 6 110 0 
804 349 342 624 6 110 0 
805 358 363 321 12 115 0 
806 357 358 387 12 115 0 
807 346 358 282 6 110 0 
808 345 363 276 6 110 0 
809 344 343 399 6 110 0 
810 345 344 351 6 110 0 
811 346 345 324 6 110 0 
812 351 346 384 6 110 0 
813 348 347 147 8 110 0 
814 349 348 66 8 110 0 
815 350 349 114 8 110 0 
816 351 350 369 8 110 0 
817 357 351 285 8 110 0 
818 356 352 477 6 110 0 
819 354 353 408 6 110 0 
820 355 354 93 8 110 0 
821 356 355 888 8 110 0 
822 362 356 267 8 110 0 
823 361 357 180 8 110 0 
824 360 358 219 6 110 0 
825 360 359 327 6 110 0 
826 359 376 231 6 110 0 
827 363 359 216 6 110 0 
828 361 360 399 6 110 0 
829 362 361 252 8 110 0 
830 377 362 159 6 110 0 
831 364 363 342 16 120 0 
832 370 364 759 8 110 0 
833 366 372 213 6 110 0 
834 366 365 276 6 110 0 
835 368 366 300 6 110 0 
836 369 371 225 6 110 0 
837 368 367 153 6 110 0 
838 369 368 165 6 110 0 
839 370 369 123 6 110 0 
840 374 370 432 8 110 0 
841 371 373 213 6 110 0 
842 372 371 465 6 110 0 
843 373 372 609 6 110 0 
844 374 373 132 6 110 0 
845 382 374 246 8 110 0 
846 378 375 516 6 110 0 
847 375 379 195 6 110 0 
848 376 375 201 6 110 0 
849 377 376 519 6 110 0 
850 378 377 198 6 110 0 
851 384 378 198 6 110 0 
852 384 379 522 6 110 0 
853 385 380 519 6 110 0 
854 386 381 510 6 110 0 
855 383 382 381 6 110 0 
856 387 383 522 6 110 0 
857 385 384 195 6 110 0 
858 386 385 192 6 110 0 
859 387 386 219 6 110 0 
860 392 387 678 6 110 0 
861 390 388 243 6 110 0 
862 390 389 300 6 110 0 
863 391 390 195 6 110 0 
864 391 399 321 6 110 0 
865 392 395 198 6 110 0 
866 393 392 477 6 110 0 
867 393 394 126 6 110 0 
868 395 393 669 6 110 0 
869 399 395 156 6 110 0 
870 397 396 297 6 110 0 
871 397 398 174 6 110 0 
872 399 397 519 6 110 0 
873 402 400 1446 6 110 0 
874 402 401 231 6 110 0 
875 406 402 288 6 110 0 
876 405 403 405 6 110 0 
877 405 404 720 6 110 0 
878 406 405 708 6 110 0 
883 253 882 313.435111437687 8 110 0 

[COORDINATES]
32 3019.35992284231 2069.02629483783  
33 3181.1052551846 2170.08170676273  
34 3189.17051114014 2180.20087372214  
35 1654.58749041709 3092.95191143501  
36 1900.74863182368 452.024328355535  
37 2162.41669679919 1220.36141392945  
38 2289.25064182636 1262.8616204347  
39 2324.15068904479 1440.27258531822  
40 2328.58804372575 1517.41429253059  
41 1857.11898464662 1885.7148716058  
42 1898.5058203101 2116.11586736103  
43 1861.38564172902 2050.8355520271  
44 1860.9589730097 1962.08845667116  
45 1955.25275998003 2041.87550874597  
46 2044.85319103781 1961.23511921581  
47 2302.13437711275 2040.16880046923  
48 2300.00103351613 1961.66175457744  
49 2571.36236097817 2394.30390832141  
50 2565.38899890765 2301.29012568875  
51 2117.34419977782 2749.56773953153  
52 2203.74461981379 2790.63460457004  
53 2237.34478316112 2786.9012532029  
54 2267.2115950254 2867.43497555114  
55 2264.54491539466 2760.23445772335  
56 2235.21143945652 2765.56781681926  
57 2222.94471315512 2684.50075856143  
58 2225.07805685971 2627.96715214479  
59 2087.84310662568 4360.14589671435  
60 2069.1763492105 4357.4792171664  
61 2064.90966180132 4295.07891574425  
62 1927.30899285514 4257.21206616329  
63 1887.84213432018 4216.14520112479  
64 2077.70972402887 4177.74501563424  
65 2042.5095529031 4093.47794191886  
66 1762.50820108504 4411.34631391709  
67 1810.50843443836 4336.67928657435  
68 1745.4414514483 4388.41286980468  
69 1716.10797551017 4349.47934840454  
70 1772.64158368185 4426.27971938564  
71 1879.30876891145 4536.14691676138  
72 1771.57491182956 4443.34646849255  
73 1799.30837998925 4510.01345719142  
74 1777.44160701718 4520.14683947365  
75 1834.50855111502 4583.61381271498  
76 1613.1741417636 4583.08047680539  
77 1595.04072027457 4450.81317122682  
78 924.019680151651 5670.78164663291  
79 333.083482435636 5590.78109590717  
80 153.882611249913 5496.38063990957  
81 475.484198050493 5470.24739396369  
82 470.150838789013 5502.24754853915  
83 738.952145567598 5599.84801999429  
84 622.684913667337 5595.58133271757  
85 625.351560491521 5503.84749726698  
86 667.885103844332 4822.51084946659  
87 665.885094121277 4693.84355965006  
88 812.651630209457 5179.4270687966  
89 1087.65295625525 5234.42733603868  
90 925.485570246984 5006.82602931099  
91 911.485502185599 4912.82557405642  
92 2760.52153779026 606.930931114037  
93 2607.98794435445 863.608143088875  
94 2759.46958197346 863.608143088875  
95 2429.52428045003 3089.88027987399  
96 2750.16039086356 3092.40497365405  
97 2950.45281325503 2686.77082721732  
98 2953.81907163207 2776.81823870623  
99 2814.96091357897 2781.026061673  
100 2242.69686367715 2514.25007695197  
101 2098.78931805848 2515.93320613868  
102 2097.10618886996 2627.01973246144  
103 2242.69701295676 2464.59779905043  
104 2242.69701295676 2494.89412441118  
105 2313.3884388747 2494.89412441118  
106 2611.30230524317 2457.8652823036  
107 2397.54489830082 2529.39827273871  
108 2430.36591747701 2492.36943063112  
109 2433.73217585405 2324.05651196026  
110 2661.79615160473 2173.41644252664  
111 2750.16043400216 2175.09957171335  
112 2851.98974990777 2174.25800711999  
113 2851.98974990777 2104.40814587159  
114 2751.00199859642 2106.0912750583  
115 2795.26827087551 1452.53229978896  
116 2915.78032755312 1451.18579639342  
117 2915.10707583983 1309.12968816413  
118 2202.67301078839 1881.75902740679  
119 2122.52913116737 1855.04439974618  
120 2201.3803675687 1814.11069607266  
121 2128.13058511937 1767.57553821224  
122 2203.10389186162 1767.57553821224  
123 1819.18891129221 1962.33368299699  
124 2047.12483486895 1760.25061164155  
125 2079.4409153613 1763.69766037195  
126 2079.01003428807 1931.74128597902  
127 2035.49104589171 1933.03392925292  
128 1994.1264628615 1934.32657252683  
129 1951.46929701687 1888.22224295445  
130 1907.51942754728 1887.36048077185  
131 1885.54449281248 1886.92959968055  
132 1906.22678432758 1850.30470692004  
133 1914.41352471898 1772.746110486  
134 1994.12652326677 1768.0064184817  
135 2041.95428828907 1672.78158594497  
136 2047.98662331431 1714.57705180109  
137 2205.68909611697 1706.39031106639  
138 2104.86292189894 1631.84798602881  
139 2203.96556874214 1632.70974821141  
140 2344.86367968878 1586.60547144229  
141 2345.29456076201 1681.83019261964  
142 2205.25821196184 1681.39931152834  
143 2412.94288925933 1682.26107371094  
144 1952.33110289014 1771.88439167644  
145 1951.08555668777 1960.63061712798  
146 2622.65413099848 1307.5765553865  
147 2536.81454238384 1305.8934261998  
148 2467.80624565442 1514.60144535166  
149 2467.80624565442 1306.73499079315  
150 2406.37203027335 1372.37702907478  
151 2203.55496305639 1517.96770372508  
152 2215.33686737605 1375.7432874482  
153 2349.98720245784 1386.68362716181  
154 2289.39455167104 1376.58485204156  
155 2289.39455167104 1305.05186160644  
156 3146.10739069262 1319.35840852908  
157 3082.99004612303 1342.08065254965  
158 3083.83161071729 1395.94078652432  
159 3050.16902694684 1396.78235111768  
160 3044.27807478701 1310.94276259554  
161 2755.62141895541 1307.57650422212  
162 2713.54318924235 1309.25963340883  
163 2412.2629551455 1517.96763761267  
164 2535.9729505019 1515.44294383261  
165 2621.81253911655 1516.28450842596  
166 2712.70151529676 1517.12607301931  
167 2622.65410371081 1733.40817351137  
168 2757.30443879261 1759.49667590535  
169 2897.00416143997 1764.54606346547  
170 2878.48976785454 1560.04596860592  
171 3045.11955751826 1558.36283941922  
172 2790.12548545711 1683.755963829  
173 3040.91173454696 1682.91439923565  
174 3040.91173454696 1844.49480115967  
175 2831.36215057591 1843.65323656632  
176 2754.77977249814 1844.49480115967  
177 2536.81454058796 2022.90634822168  
178 2379.94689139309 2164.96245645096  
179 2394.08517737202 2073.40022555436  
180 2448.61856614792 2124.56735458481  
181 2497.76594121756 2097.63728667405  
182 2532.60678584339 1786.80534160176  
183 2414.78773436194 1785.75338581498  
184 1882.57282653649 2331.0048294452  
185 2203.16259659972 1963.01267298183  
186 2413.9784144386 1960.51781128117  
187 2529.98948579372 1961.7652421315  
188 2755.77447413003 1959.27038043084  
189 3041.43614445608 1955.52808787985  
190 3011.49780346121 2102.72492821888  
191 2993.59807290047 2175.54144795384  
192 2742.05273450738 2218.73599729963  
193 2738.31044188302 2299.81900257113  
194 2645.00255148422 2361.19269335388  
195 2823.63464034085 2300.31806863126  
196 2821.63875107989 2359.19680401872  
197 2736.81345748875 2549.80423552725  
198 2701.8853954218 2563.77546087342  
199 2757.77029472891 2503.89878081839  
200 2653.98405315857 2446.01799009852  
201 2767.74974103375 2461.98510477986  
202 2801.67985847021 2473.96044079087  
203 2888.50104132232 2499.90700214805  
204 2951.37155304281 2301.31601329885  
205 2645.00255148422 2301.31601329885  
206 2708.87100783519 2658.5802042939  
207 1740.34644294929 2630.59933694413  
208 1659.51294893676 2625.60954294143  
209 2413.91944124105 2798.29367655359  
210 2400.50706487051 2733.78653350326  
211 2449.68577822914 2733.78653350326  
212 2491.2002765189 2783.60393110649  
213 2567.84242720767 2756.7791785509  
214 2512.27686795831 2751.03101728899  
215 2556.98478919343 2690.3559817466  
216 2525.05055973977 2693.54940466989  
217 2632.98825529312 2567.08985690786  
218 2569.11979638581 2597.10803238672  
219 2628.51746316961 2754.22444021228  
220 2688.55381454248 2740.17337934983  
221 2746.67411214814 2708.87783470165  
222 2245.18680287966 2627.13619411159  
223 2315.04292701355 2628.13413877917  
224 2374.91960484259 2628.13413877917  
225 2462.73873232518 2640.10947479018  
226 2522.61541015422 2649.09097679844  
227 2573.51058630891 2648.09303213085  
228 2619.41603931117 2654.08070013636  
229 2642.3687658123 2655.07864480394  
230 2680.2906617707 2658.07247880669  
231 2766.11389999232 2662.06425747703  
232 2836.96796875669 2677.03342749079  
233 2428.80853518266 3134.09213282995  
234 2741.16520452416 3138.08391150028  
235 183.497044982351 4638.19885152834  
236 298.46027101551 4647.77912029819  
237 178.387568269767 4710.37020959455  
238 717.437381176584 4343.12697048793  
239 784.499261836305 4288.04042595725  
240 784.499261836305 4343.12697048793  
241 717.437381176584 4521.16029556534  
242 716.639025454445 4418.1724079645  
243 784.499261836305 4417.37405224667  
244 785.608648974798 4507.15447213142  
245 709.935358593553 4524.29972959472  
246 628.503074935321 4549.04875684763  
247 544.675724110671 4695.14785321161  
248 628.503074935321 4695.14785321161  
249 627.704719213182 4622.49748288854  
250 705.943579982856 4683.97087316191  
251 705.943579982856 4620.90077145287  
252 788.174219363227 4689.55936318676  
253 1453.66944670099 4771.16977496418  
254 1383.81332256711 4564.5952287743  
255 1265.05791153951 4706.30337157122  
256 1320.94281084662 4703.30953756847  
257 1324.93458936856 4566.59111810947  
258 1261.06613301758 4566.59111810947  
259 1189.21411962273 4694.32803556021  